<routes>
<vType id="Bus" accel="0.6" decel="3.5" sigma="0.5" length="10.1" minGap="1.0" maxSpeed="16.67" carFollowModel="Wiedemann" guiShape="bus" width="2.45" latAlignment="left" laneChangeModel="SL2015" lcStrategic="0.5" lcCooperative="0.0"/>
<vType id="Auto" accel="0.7" decel="4.5" sigma="0.5" length="2.6" minGap="0.3" maxSpeed="16" carFollowModel="Wiedemann" guiShape="passenger/sedan" width="1.25" latAlignment="left" laneChangeModel="SL2015" lcStrategic="0.5" lcCooperative="0.0" />
<vType id="MotorCycle" accel="0.9" decel="3.5" sigma="0.5" length="1.85" minGap="0.15"  carFollowModel="Wiedemann" maxSpeed="17" guiShape="motorcycle" width="0.7" latAlignment="left" laneChangeModel="SL2015" lcStrategic="0.5" lcCooperative="0.0"/>
<vType id="Car" accel="0.8" decel="4.5" sigma="0.5" length="3.6" minGap="0.5" maxSpeed="40" carFollowModel="Wiedemann" guiShape="passenger" width="1.5" latAlignment="left" laneChangeModel="SL2015" lcStrategic="0.5" lcCooperative="0.0"/>
<vType id="emergency" accel="2.8" decel="5.5" sigma="0.5" length="3.6" minGap="0.5" maxSpeed="120.6" carFollowModel="Wiedemann" guiShape="emergency" width="1.5" latAlignment="left" laneChangeModel="SL2015" lcStrategic="0.5" lcCooperative="0.0" vClass="emergency" speedFactor="1.9" jmDriveAfterRedTime="300" jmDriveAfterRedSpeed="5.56">
<param key="has.bluelight.device" value="true"/>
<param key="has.fcd.device" value="true"/> 
</vType>
<route id="route_0" edges="1i 52i gneE0 gneE2" />
<route id="route_1" edges="-gneE2 -gneE0 52o 2i 1o" />
        <route id="route_2" edges="4i 3o" />
        <route id="route_3" edges="3i 4o" />
        <route id="route_4" edges="-gneE1 gneE3" /> 
        <route id="route_5" edges="4i 1o" />
        <route id="route_6" edges="4i 2o 52i gneE0 gneE1" />
        <route id="route_7" edges="2i 4o" />
        <route id="route_8" edges="2i 3o" />
        <route id="route_9" edges="-gneE1 gneE3" />
        <route id="route_10" edges="3i 2o 52i gneE0 gneE3" />
        <route id="route_11" edges="3i 1o" />
        <route id="route_12" edges="-gneE1 -gneE0 52o 2i 4o" />
        <route id="route_13" edges="-gneE1 gneE2" />
        <route id="route_14" edges="-gneE2 gneE1" />
        <route id="route_15" edges="-gneE2 gneE3" />
        <route id="route_16" edges="-gneE3 -gneE0 52o 2i 3o" />
        <route id="route_17" edges="-gneE3 gneE2" />
        <route id="route_18" edges="gneE0 gneE3" />
        <route id="route_19" edges="gneE0 gneE1" />
        <route id="route_20" edges="1i 2o 52i gneE0 gneE2 -gneE4 gneE5" />
        <route id="route_21" edges="-gneE5 gneE4 -gneE2 -gneE0 52o 2i 1o" />
        <route id="route_22" edges="-gneE5 gneE4 -gneE2 -gneE0 52o 2i 3o" />
        <route id="route_23" edges="1i 2o 52i gneE0 gneE2 -gneE4 gneE7" />

	<route id="route_24" edges="gneE0"/>
<vehicle id="emergency_0" type="emergency" route="route_7" depart="0" />
<vehicle id="Bus_0" type="Bus" route="route_7" depart="0" />
<vehicle id="Car_0" type="Car" route="route_3" depart="0" />
<vehicle id="MotorCycle_1" type="MotorCycle" route="route_2" depart="1" />
<vehicle id="Bus_2" type="MotorCycle" route="route_21" depart="1" />
<vehicle id="Auto_3" type="MotorCycle" route="route_19" depart="2" />
<vehicle id="MotorCycle_4" type="MotorCycle" route="route_21" depart="2" />
<vehicle id="MotorCycle_5" type="Car" route="route_21" depart="2" />
<vehicle id="Car_6" type="MotorCycle" route="route_1" depart="3" />
<vehicle id="Car_7" type="Car" route="route_1" depart="3" />
<vehicle id="Auto_8" type="MotorCycle" route="route_22" depart="3" />
<vehicle id="MotorCycle_9" type="MotorCycle" route="route_23" depart="3" />
<vehicle id="Auto_10" type="MotorCycle" route="route_3" depart="4" />
<vehicle id="Car_11" type="Car" route="route_22" depart="4" />
<vehicle id="MotorCycle_12" type="MotorCycle" route="route_2" depart="5" />
<vehicle id="MotorCycle_13" type="MotorCycle" route="route_15" depart="5" />
<vehicle id="Auto_14" type="MotorCycle" route="route_19" depart="5" />
<vehicle id="Car_15" type="Auto" route="route_22" depart="5" />
<vehicle id="Car_16" type="MotorCycle" route="route_22" depart="5" />
<vehicle id="Car_17" type="Auto" route="route_24" depart="5" />
<vehicle id="Car_18" type="MotorCycle" route="route_4" depart="6" />
<vehicle id="Car_19" type="MotorCycle" route="route_5" depart="6" />
<vehicle id="Bus_20" type="MotorCycle" route="route_20" depart="6" />
<vehicle id="Car_21" type="MotorCycle" route="route_19" depart="7" />
<vehicle id="Auto_22" type="MotorCycle" route="route_21" depart="7" />
<vehicle id="Bus_23" type="MotorCycle" route="route_22" depart="7" />
<vehicle id="MotorCycle_24" type="MotorCycle" route="route_23" depart="7" />
<vehicle id="Auto_25" type="MotorCycle" route="route_24" depart="7" />
<vehicle id="Car_26" type="MotorCycle" route="route_22" depart="8" />
<vehicle id="Car_27" type="MotorCycle" route="route_23" depart="8" />
<vehicle id="MotorCycle_28" type="MotorCycle" route="route_24" depart="8" />
<vehicle id="Bus_29" type="MotorCycle" route="route_2" depart="9" />
<vehicle id="Bus_30" type="Car" route="route_2" depart="9" />
<vehicle id="Auto_31" type="MotorCycle" route="route_19" depart="10" />
<vehicle id="Auto_32" type="MotorCycle" route="route_21" depart="10" />
<vehicle id="Auto_33" type="Car" route="route_21" depart="10" />
<vehicle id="Bus_34" type="MotorCycle" route="route_22" depart="10" />
<vehicle id="MotorCycle_35" type="MotorCycle" route="route_19" depart="11" />
<vehicle id="MotorCycle_36" type="MotorCycle" route="route_21" depart="11" />
<vehicle id="Car_37" type="MotorCycle" route="route_22" depart="11" />
<vehicle id="MotorCycle_38" type="MotorCycle" route="route_24" depart="11" />
<vehicle id="Bus_39" type="MotorCycle" route="route_20" depart="12" />
<vehicle id="Car_40" type="MotorCycle" route="route_24" depart="12" />
<vehicle id="Car_41" type="MotorCycle" route="route_21" depart="13" />
<vehicle id="MotorCycle_42" type="MotorCycle" route="route_23" depart="13" />
<vehicle id="Car_43" type="MotorCycle" route="route_4" depart="14" />
<vehicle id="MotorCycle_44" type="MotorCycle" route="route_24" depart="14" />
<vehicle id="MotorCycle_45" type="MotorCycle" route="route_17" depart="15" />
<vehicle id="Auto_46" type="MotorCycle" route="route_20" depart="15" />
<vehicle id="Auto_47" type="Bus" route="route_21" depart="15" />
<vehicle id="Auto_48" type="MotorCycle" route="route_21" depart="15" />
<vehicle id="Auto_49" type="MotorCycle" route="route_22" depart="15" />
<vehicle id="Bus_50" type="MotorCycle" route="route_1" depart="16" />
<vehicle id="Auto_51" type="Car" route="route_3" depart="16" />
<vehicle id="Auto_52" type="MotorCycle" route="route_19" depart="16" />
<vehicle id="Car_53" type="MotorCycle" route="route_24" depart="16" />
<vehicle id="Car_54" type="Car" route="route_24" depart="16" />
<vehicle id="Bus_55" type="MotorCycle" route="route_4" depart="17" />
<vehicle id="MotorCycle_56" type="Auto" route="route_18" depart="17" />
<vehicle id="MotorCycle_57" type="Car" route="route_18" depart="17" />
<vehicle id="Auto_58" type="MotorCycle" route="route_20" depart="17" />
<vehicle id="Bus_59" type="Car" route="route_21" depart="17" />
<vehicle id="MotorCycle_60" type="MotorCycle" route="route_11" depart="18" />
<vehicle id="Bus_61" type="MotorCycle" route="route_21" depart="18" />
<vehicle id="Auto_62" type="MotorCycle" route="route_24" depart="18" />
<vehicle id="Auto_63" type="MotorCycle" route="route_14" depart="19" />
<vehicle id="Car_64" type="MotorCycle" route="route_19" depart="19" />
<vehicle id="Car_65" type="Car" route="route_19" depart="19" />
<vehicle id="Bus_66" type="MotorCycle" route="route_21" depart="19" />
<vehicle id="Car_67" type="MotorCycle" route="route_3" depart="20" />
<vehicle id="Auto_68" type="MotorCycle" route="route_22" depart="20" />
<vehicle id="MotorCycle_69" type="Bus" route="route_23" depart="21" />
<vehicle id="MotorCycle_70" type="MotorCycle" route="route_23" depart="21" />
<vehicle id="Auto_71" type="MotorCycle" route="route_21" depart="22" />
<vehicle id="Car_72" type="MotorCycle" route="route_22" depart="22" />
<vehicle id="Bus_73" type="MotorCycle" route="route_6" depart="23" />
<vehicle id="Auto_74" type="MotorCycle" route="route_15" depart="23" />
<vehicle id="Auto_75" type="Car" route="route_15" depart="23" />
<vehicle id="Car_76" type="MotorCycle" route="route_4" depart="24" />
<vehicle id="Bus_77" type="MotorCycle" route="route_20" depart="24" />
<vehicle id="Auto_78" type="MotorCycle" route="route_21" depart="24" />
<vehicle id="Bus_79" type="Car" route="route_22" depart="24" />
<vehicle id="Auto_80" type="Car" route="route_23" depart="24" />
<vehicle id="Auto_81" type="MotorCycle" route="route_24" depart="24" />
<vehicle id="Auto_82" type="Car" route="route_24" depart="24" />
<vehicle id="Auto_83" type="MotorCycle" route="route_21" depart="25" />
<vehicle id="Auto_84" type="Car" route="route_21" depart="25" />
<vehicle id="Car_85" type="MotorCycle" route="route_4" depart="26" />
<vehicle id="Car_86" type="Car" route="route_4" depart="26" />
<vehicle id="Bus_87" type="MotorCycle" route="route_11" depart="26" />
<vehicle id="Auto_88" type="MotorCycle" route="route_21" depart="26" />
<vehicle id="Auto_89" type="Car" route="route_21" depart="26" />
<vehicle id="Car_90" type="MotorCycle" route="route_24" depart="26" />
<vehicle id="MotorCycle_91" type="MotorCycle" route="route_21" depart="27" />
<vehicle id="MotorCycle_92" type="Auto" route="route_5" depart="28" />
<vehicle id="MotorCycle_93" type="Car" route="route_5" depart="28" />
<vehicle id="Car_94" type="MotorCycle" route="route_8" depart="29" />
<vehicle id="MotorCycle_95" type="MotorCycle" route="route_18" depart="29" />
<vehicle id="Car_96" type="MotorCycle" route="route_21" depart="29" />
<vehicle id="MotorCycle_97" type="Bus" route="route_22" depart="29" />
<vehicle id="MotorCycle_98" type="MotorCycle" route="route_22" depart="29" />
<vehicle id="Bus_99" type="MotorCycle" route="route_14" depart="30" />
<vehicle id="Bus_100" type="MotorCycle" route="route_17" depart="30" />
<vehicle id="MotorCycle_101" type="Car" route="route_21" depart="30" />
<vehicle id="Bus_102" type="MotorCycle" route="route_20" depart="32" />
<vehicle id="Bus_103" type="MotorCycle" route="route_4" depart="33" />
<vehicle id="Auto_104" type="MotorCycle" route="route_24" depart="33" />
<vehicle id="Auto_105" type="Car" route="route_24" depart="33" />
<vehicle id="MotorCycle_106" type="MotorCycle" route="route_20" depart="35" />
<vehicle id="Bus_107" type="MotorCycle" route="route_22" depart="35" />
<vehicle id="MotorCycle_108" type="MotorCycle" route="route_24" depart="36" />
<vehicle id="Car_109" type="MotorCycle" route="route_14" depart="37" />
<vehicle id="Auto_110" type="MotorCycle" route="route_21" depart="37" />
<vehicle id="Car_111" type="MotorCycle" route="route_23" depart="37" />
<vehicle id="Car_112" type="MotorCycle" route="route_21" depart="38" />
<vehicle id="Auto_113" type="MotorCycle" route="route_19" depart="39" />
<vehicle id="MotorCycle_114" type="MotorCycle" route="route_24" depart="39" />
<vehicle id="Auto_115" type="MotorCycle" route="route_21" depart="40" />
<vehicle id="MotorCycle_116" type="MotorCycle" route="route_21" depart="41" />
<vehicle id="Auto_117" type="MotorCycle" route="route_16" depart="42" />
<vehicle id="Car_118" type="MotorCycle" route="route_21" depart="42" />
<vehicle id="Car_119" type="Car" route="route_21" depart="42" />
<vehicle id="Car_120" type="MotorCycle" route="route_23" depart="42" />
<vehicle id="Car_121" type="Car" route="route_23" depart="42" />
<vehicle id="Auto_122" type="MotorCycle" route="route_20" depart="43" />
<vehicle id="Auto_123" type="Car" route="route_20" depart="43" />
<vehicle id="Bus_124" type="Car" route="route_22" depart="43" />
<vehicle id="MotorCycle_125" type="MotorCycle" route="route_21" depart="44" />
<vehicle id="MotorCycle_126" type="MotorCycle" route="route_22" depart="44" />
<vehicle id="Bus_127" type="MotorCycle" route="route_23" depart="44" />
<vehicle id="Auto_128" type="MotorCycle" route="route_21" depart="46" />
<vehicle id="MotorCycle_129" type="Auto" route="route_22" depart="46" />
<vehicle id="MotorCycle_130" type="Car" route="route_22" depart="46" />
<vehicle id="MotorCycle_131" type="MotorCycle" route="route_20" depart="47" />
<vehicle id="Bus_132" type="Car" route="route_21" depart="47" />
<vehicle id="Auto_133" type="MotorCycle" route="route_22" depart="47" />
<vehicle id="Bus_134" type="MotorCycle" route="route_10" depart="48" />
<vehicle id="Bus_135" type="MotorCycle" route="route_23" depart="48" />
<vehicle id="Auto_136" type="MotorCycle" route="route_22" depart="49" />
<vehicle id="Car_137" type="MotorCycle" route="route_7" depart="50" />
<vehicle id="MotorCycle_138" type="Auto" route="route_19" depart="50" />
<vehicle id="MotorCycle_139" type="MotorCycle" route="route_19" depart="50" />
<vehicle id="Car_140" type="MotorCycle" route="route_21" depart="50" />
<vehicle id="MotorCycle_141" type="MotorCycle" route="route_13" depart="51" />
<vehicle id="Auto_142" type="MotorCycle" route="route_22" depart="51" />
<vehicle id="MotorCycle_143" type="MotorCycle" route="route_23" depart="51" />
<vehicle id="Auto_144" type="MotorCycle" route="route_24" depart="51" />
<vehicle id="Auto_145" type="Car" route="route_24" depart="51" />
<vehicle id="MotorCycle_146" type="MotorCycle" route="route_22" depart="52" />
<vehicle id="Bus_147" type="MotorCycle" route="route_4" depart="53" />
<vehicle id="MotorCycle_148" type="MotorCycle" route="route_7" depart="53" />
<vehicle id="MotorCycle_149" type="MotorCycle" route="route_8" depart="53" />
<vehicle id="Car_150" type="MotorCycle" route="route_19" depart="53" />
<vehicle id="MotorCycle_151" type="MotorCycle" route="route_24" depart="53" />
<vehicle id="Auto_152" type="MotorCycle" route="route_5" depart="54" />
<vehicle id="Auto_153" type="Auto" route="route_12" depart="54" />
<vehicle id="Bus_154" type="MotorCycle" route="route_21" depart="54" />
<vehicle id="MotorCycle_155" type="Car" route="route_23" depart="54" />
<vehicle id="Bus_156" type="Bus" route="route_22" depart="55" />
<vehicle id="Bus_157" type="MotorCycle" route="route_22" depart="55" />
<vehicle id="MotorCycle_158" type="MotorCycle" route="route_20" depart="56" />
<vehicle id="Auto_159" type="MotorCycle" route="route_22" depart="56" />
<vehicle id="Bus_160" type="MotorCycle" route="route_9" depart="57" />
<vehicle id="Bus_161" type="MotorCycle" route="route_22" depart="57" />
<vehicle id="MotorCycle_162" type="MotorCycle" route="route_22" depart="58" />
<vehicle id="MotorCycle_163" type="Car" route="route_22" depart="58" />
<vehicle id="MotorCycle_164" type="MotorCycle" route="route_12" depart="59" />
<vehicle id="MotorCycle_165" type="Car" route="route_12" depart="59" />
<vehicle id="Bus_166" type="Auto" route="route_14" depart="59" />
<vehicle id="Bus_167" type="MotorCycle" route="route_14" depart="59" />
<vehicle id="Auto_168" type="Car" route="route_19" depart="59" />
<vehicle id="Bus_169" type="MotorCycle" route="route_21" depart="59" />
<vehicle id="Bus_170" type="Car" route="route_21" depart="59" />
<vehicle id="Auto_171" type="MotorCycle" route="route_23" depart="59" />
<vehicle id="Auto_172" type="Car" route="route_23" depart="59" />
<vehicle id="MotorCycle_173" type="MotorCycle" route="route_24" depart="59" />
<vehicle id="Car_174" type="MotorCycle" route="route_4" depart="60" />
<vehicle id="Auto_175" type="MotorCycle" route="route_19" depart="60" />
<vehicle id="Bus_176" type="Car" route="route_21" depart="60" />
<vehicle id="Car_177" type="MotorCycle" route="route_22" depart="60" />
<vehicle id="Auto_178" type="MotorCycle" route="route_23" depart="60" />
<vehicle id="Car_179" type="Car" route="route_24" depart="60" />
<vehicle id="Car_180" type="Auto" route="route_21" depart="61" />
<vehicle id="Car_181" type="Car" route="route_21" depart="61" />
<vehicle id="MotorCycle_182" type="MotorCycle" route="route_22" depart="61" />
<vehicle id="MotorCycle_183" type="Car" route="route_22" depart="61" />
<vehicle id="Car_184" type="Auto" route="route_23" depart="61" />
<vehicle id="Car_185" type="MotorCycle" route="route_23" depart="61" />
<vehicle id="Car_186" type="Car" route="route_23" depart="61" />
<vehicle id="Auto_187" type="Bus" route="route_8" depart="62" />
<vehicle id="Auto_188" type="Car" route="route_8" depart="62" />
<vehicle id="Auto_189" type="MotorCycle" route="route_5" depart="63" />
<vehicle id="MotorCycle_190" type="MotorCycle" route="route_19" depart="63" />
<vehicle id="Car_191" type="MotorCycle" route="route_21" depart="63" />
<vehicle id="Auto_192" type="MotorCycle" route="route_23" depart="63" />
<vehicle id="Auto_193" type="Car" route="route_23" depart="63" />
<vehicle id="Auto_194" type="MotorCycle" route="route_24" depart="64" />
<vehicle id="Car_195" type="MotorCycle" route="route_15" depart="65" />
<vehicle id="Car_196" type="MotorCycle" route="route_1" depart="66" />
<vehicle id="Car_197" type="MotorCycle" route="route_21" depart="66" />
<vehicle id="Bus_198" type="MotorCycle" route="route_23" depart="66" />
<vehicle id="MotorCycle_199" type="MotorCycle" route="route_21" depart="67" />
<vehicle id="Auto_200" type="MotorCycle" route="route_22" depart="67" />
<vehicle id="Car_201" type="Bus" route="route_24" depart="67" />
<vehicle id="Car_202" type="MotorCycle" route="route_24" depart="67" />
<vehicle id="Auto_203" type="MotorCycle" route="route_5" depart="68" />
<vehicle id="Auto_204" type="Car" route="route_5" depart="68" />
<vehicle id="MotorCycle_205" type="Auto" route="route_2" depart="69" />
<vehicle id="MotorCycle_206" type="MotorCycle" route="route_2" depart="69" />
<vehicle id="Auto_207" type="Car" route="route_21" depart="69" />
<vehicle id="Bus_208" type="MotorCycle" route="route_24" depart="69" />
<vehicle id="Car_209" type="MotorCycle" route="route_21" depart="70" />
<vehicle id="Car_210" type="Car" route="route_21" depart="70" />
<vehicle id="Auto_211" type="Auto" route="route_18" depart="71" />
<vehicle id="MotorCycle_212" type="MotorCycle" route="route_21" depart="71" />
<vehicle id="MotorCycle_213" type="Car" route="route_21" depart="71" />
<vehicle id="Auto_214" type="Auto" route="route_24" depart="71" />
<vehicle id="Auto_215" type="MotorCycle" route="route_24" depart="71" />
<vehicle id="Car_216" type="MotorCycle" route="route_16" depart="72" />
<vehicle id="Car_217" type="Auto" route="route_12" depart="73" />
<vehicle id="Car_218" type="MotorCycle" route="route_12" depart="73" />
<vehicle id="MotorCycle_219" type="MotorCycle" route="route_10" depart="74" />
<vehicle id="MotorCycle_220" type="MotorCycle" route="route_22" depart="74" />
<vehicle id="MotorCycle_221" type="MotorCycle" route="route_24" depart="74" />
<vehicle id="Car_222" type="MotorCycle" route="route_22" depart="75" />
<vehicle id="MotorCycle_223" type="MotorCycle" route="route_22" depart="76" />
<vehicle id="MotorCycle_224" type="MotorCycle" route="route_24" depart="76" />
<vehicle id="Car_225" type="MotorCycle" route="route_1" depart="77" />
<vehicle id="Car_226" type="Car" route="route_1" depart="77" />
<vehicle id="Bus_227" type="MotorCycle" route="route_20" depart="77" />
<vehicle id="Bus_228" type="Car" route="route_20" depart="77" />
<vehicle id="Car_229" type="MotorCycle" route="route_22" depart="77" />
<vehicle id="MotorCycle_230" type="MotorCycle" route="route_23" depart="77" />
<vehicle id="Car_231" type="MotorCycle" route="route_4" depart="78" />
<vehicle id="Bus_232" type="MotorCycle" route="route_20" depart="78" />
<vehicle id="Bus_233" type="Car" route="route_20" depart="78" />
<vehicle id="MotorCycle_234" type="MotorCycle" route="route_22" depart="78" />
<vehicle id="Car_235" type="MotorCycle" route="route_22" depart="79" />
<vehicle id="Car_236" type="Car" route="route_22" depart="79" />
<vehicle id="Auto_237" type="MotorCycle" route="route_24" depart="79" />
<vehicle id="Auto_238" type="Car" route="route_24" depart="79" />
<vehicle id="MotorCycle_239" type="MotorCycle" route="route_1" depart="80" />
<vehicle id="Bus_240" type="MotorCycle" route="route_8" depart="80" />
<vehicle id="Auto_241" type="MotorCycle" route="route_10" depart="80" />
<vehicle id="Auto_242" type="MotorCycle" route="route_19" depart="80" />
<vehicle id="Auto_243" type="MotorCycle" route="route_21" depart="80" />
<vehicle id="MotorCycle_244" type="MotorCycle" route="route_2" depart="82" />
<vehicle id="MotorCycle_245" type="MotorCycle" route="route_21" depart="82" />
<vehicle id="Car_246" type="MotorCycle" route="route_22" depart="82" />
<vehicle id="Bus_247" type="MotorCycle" route="route_6" depart="83" />
<vehicle id="Auto_248" type="MotorCycle" route="route_21" depart="83" />
<vehicle id="Bus_249" type="MotorCycle" route="route_24" depart="84" />
<vehicle id="MotorCycle_250" type="MotorCycle" route="route_3" depart="85" />
<vehicle id="Car_251" type="MotorCycle" route="route_21" depart="85" />
<vehicle id="Auto_252" type="MotorCycle" route="route_8" depart="86" />
<vehicle id="Car_253" type="Auto" route="route_20" depart="86" />
<vehicle id="MotorCycle_254" type="MotorCycle" route="route_21" depart="86" />
<vehicle id="MotorCycle_255" type="Car" route="route_21" depart="86" />
<vehicle id="Bus_256" type="MotorCycle" route="route_24" depart="86" />
<vehicle id="Bus_257" type="MotorCycle" route="route_5" depart="87" />
<vehicle id="Bus_258" type="Car" route="route_5" depart="87" />
<vehicle id="Bus_259" type="MotorCycle" route="route_10" depart="87" />
<vehicle id="Auto_260" type="MotorCycle" route="route_20" depart="87" />
<vehicle id="Auto_261" type="MotorCycle" route="route_21" depart="87" />
<vehicle id="Auto_262" type="MotorCycle" route="route_22" depart="87" />
<vehicle id="Bus_263" type="Auto" route="route_6" depart="88" />
<vehicle id="Bus_264" type="MotorCycle" route="route_6" depart="88" />
<vehicle id="Bus_265" type="Car" route="route_6" depart="88" />
<vehicle id="MotorCycle_266" type="MotorCycle" route="route_21" depart="88" />
<vehicle id="Car_267" type="MotorCycle" route="route_22" depart="88" />
<vehicle id="Car_268" type="MotorCycle" route="route_23" depart="88" />
<vehicle id="Bus_269" type="MotorCycle" route="route_24" depart="88" />
<vehicle id="Bus_270" type="Car" route="route_24" depart="88" />
<vehicle id="Car_271" type="MotorCycle" route="route_1" depart="89" />
<vehicle id="Auto_272" type="MotorCycle" route="route_21" depart="89" />
<vehicle id="Bus_273" type="MotorCycle" route="route_22" depart="89" />
<vehicle id="MotorCycle_274" type="MotorCycle" route="route_21" depart="90" />
<vehicle id="Car_275" type="MotorCycle" route="route_3" depart="91" />
<vehicle id="Car_276" type="MotorCycle" route="route_5" depart="91" />
<vehicle id="Auto_277" type="MotorCycle" route="route_19" depart="91" />
<vehicle id="MotorCycle_278" type="Car" route="route_2" depart="92" />
<vehicle id="MotorCycle_279" type="MotorCycle" route="route_4" depart="92" />
<vehicle id="Bus_280" type="MotorCycle" route="route_11" depart="92" />
<vehicle id="Auto_281" type="MotorCycle" route="route_22" depart="92" />
<vehicle id="Car_282" type="MotorCycle" route="route_24" depart="92" />
<vehicle id="Auto_283" type="MotorCycle" route="route_20" depart="93" />
<vehicle id="Car_284" type="MotorCycle" route="route_24" depart="93" />
<vehicle id="Car_285" type="Bus" route="route_21" depart="94" />
<vehicle id="Car_286" type="MotorCycle" route="route_21" depart="94" />
<vehicle id="Car_287" type="MotorCycle" route="route_22" depart="94" />
<vehicle id="Car_288" type="Car" route="route_20" depart="95" />
<vehicle id="Bus_289" type="Auto" route="route_21" depart="95" />
<vehicle id="Bus_290" type="MotorCycle" route="route_21" depart="95" />
<vehicle id="Car_291" type="MotorCycle" route="route_22" depart="95" />
<vehicle id="Car_292" type="Car" route="route_22" depart="95" />
<vehicle id="Car_293" type="MotorCycle" route="route_23" depart="95" />
<vehicle id="MotorCycle_294" type="MotorCycle" route="route_24" depart="95" />
<vehicle id="MotorCycle_295" type="MotorCycle" route="route_19" depart="96" />
<vehicle id="Bus_296" type="MotorCycle" route="route_21" depart="96" />
<vehicle id="MotorCycle_297" type="MotorCycle" route="route_23" depart="96" />
<vehicle id="Auto_298" type="MotorCycle" route="route_19" depart="97" />
<vehicle id="Auto_299" type="MotorCycle" route="route_20" depart="97" />
<vehicle id="Bus_300" type="MotorCycle" route="route_21" depart="97" />
<vehicle id="MotorCycle_301" type="Car" route="route_21" depart="98" />
<vehicle id="MotorCycle_302" type="MotorCycle" route="route_22" depart="99" />
<vehicle id="MotorCycle_303" type="MotorCycle" route="route_21" depart="100" />
<vehicle id="Car_304" type="MotorCycle" route="route_22" depart="100" />
<vehicle id="MotorCycle_305" type="MotorCycle" route="route_6" depart="101" />
<vehicle id="MotorCycle_306" type="Car" route="route_6" depart="101" />
<vehicle id="Auto_307" type="Bus" route="route_21" depart="101" />
<vehicle id="Auto_308" type="Auto" route="route_21" depart="101" />
<vehicle id="Auto_309" type="MotorCycle" route="route_21" depart="101" />
<vehicle id="Car_310" type="MotorCycle" route="route_23" depart="101" />
<vehicle id="MotorCycle_311" type="MotorCycle" route="route_10" depart="102" />
<vehicle id="MotorCycle_312" type="MotorCycle" route="route_13" depart="102" />
<vehicle id="Car_313" type="Auto" route="route_17" depart="102" />
<vehicle id="Car_314" type="MotorCycle" route="route_17" depart="102" />
<vehicle id="MotorCycle_315" type="MotorCycle" route="route_19" depart="102" />
<vehicle id="Car_316" type="MotorCycle" route="route_19" depart="103" />
<vehicle id="Bus_317" type="MotorCycle" route="route_20" depart="103" />
<vehicle id="Car_318" type="MotorCycle" route="route_22" depart="103" />
<vehicle id="Bus_319" type="MotorCycle" route="route_23" depart="103" />
<vehicle id="Auto_320" type="MotorCycle" route="route_3" depart="104" />
<vehicle id="Car_321" type="MotorCycle" route="route_18" depart="104" />
<vehicle id="Car_322" type="MotorCycle" route="route_19" depart="104" />
<vehicle id="Auto_323" type="MotorCycle" route="route_20" depart="104" />
<vehicle id="Car_324" type="MotorCycle" route="route_22" depart="104" />
<vehicle id="MotorCycle_325" type="MotorCycle" route="route_19" depart="105" />
<vehicle id="Bus_326" type="MotorCycle" route="route_20" depart="105" />
<vehicle id="Car_327" type="MotorCycle" route="route_19" depart="106" />
<vehicle id="Car_328" type="Car" route="route_19" depart="106" />
<vehicle id="MotorCycle_329" type="MotorCycle" route="route_21" depart="106" />
<vehicle id="Auto_330" type="MotorCycle" route="route_22" depart="106" />
<vehicle id="Auto_331" type="MotorCycle" route="route_23" depart="106" />
<vehicle id="Bus_332" type="MotorCycle" route="route_19" depart="107" />
<vehicle id="Bus_333" type="Car" route="route_19" depart="107" />
<vehicle id="MotorCycle_334" type="MotorCycle" route="route_23" depart="107" />
<vehicle id="Bus_335" type="MotorCycle" route="route_19" depart="108" />
<vehicle id="Auto_336" type="MotorCycle" route="route_24" depart="108" />
<vehicle id="Auto_337" type="Car" route="route_24" depart="108" />
<vehicle id="Auto_338" type="MotorCycle" route="route_2" depart="109" />
<vehicle id="Auto_339" type="MotorCycle" route="route_23" depart="109" />
<vehicle id="Auto_340" type="Car" route="route_23" depart="109" />
<vehicle id="Car_341" type="Auto" route="route_24" depart="109" />
<vehicle id="MotorCycle_342" type="MotorCycle" route="route_10" depart="110" />
<vehicle id="MotorCycle_343" type="MotorCycle" route="route_11" depart="110" />
<vehicle id="Auto_344" type="Car" route="route_19" depart="110" />
<vehicle id="MotorCycle_345" type="MotorCycle" route="route_23" depart="110" />
<vehicle id="Bus_346" type="MotorCycle" route="route_24" depart="110" />
<vehicle id="Bus_347" type="Car" route="route_24" depart="110" />
<vehicle id="Auto_348" type="MotorCycle" route="route_11" depart="111" />
<vehicle id="MotorCycle_349" type="MotorCycle" route="route_22" depart="111" />
<vehicle id="MotorCycle_350" type="MotorCycle" route="route_21" depart="112" />
<vehicle id="Bus_351" type="MotorCycle" route="route_20" depart="113" />
<vehicle id="Bus_352" type="Auto" route="route_21" depart="113" />
<vehicle id="Car_353" type="MotorCycle" route="route_24" depart="113" />
<vehicle id="Car_354" type="Car" route="route_24" depart="113" />
<vehicle id="Auto_355" type="MotorCycle" route="route_20" depart="114" />
<vehicle id="Bus_356" type="MotorCycle" route="route_24" depart="114" />
<vehicle id="MotorCycle_357" type="MotorCycle" route="route_1" depart="116" />
<vehicle id="MotorCycle_358" type="Auto" route="route_21" depart="116" />
<vehicle id="MotorCycle_359" type="MotorCycle" route="route_21" depart="116" />
<vehicle id="Bus_360" type="MotorCycle" route="route_22" depart="116" />
<vehicle id="Bus_361" type="MotorCycle" route="route_21" depart="117" />
<vehicle id="Bus_362" type="MotorCycle" route="route_19" depart="119" />
<vehicle id="MotorCycle_363" type="MotorCycle" route="route_22" depart="119" />
<vehicle id="MotorCycle_364" type="MotorCycle" route="route_12" depart="120" />
<vehicle id="MotorCycle_365" type="MotorCycle" route="route_20" depart="120" />
<vehicle id="MotorCycle_366" type="Car" route="route_21" depart="120" />
<vehicle id="Car_367" type="MotorCycle" route="route_22" depart="120" />
<vehicle id="MotorCycle_368" type="MotorCycle" route="route_11" depart="121" />
<vehicle id="Auto_369" type="MotorCycle" route="route_24" depart="122" />
<vehicle id="Car_370" type="MotorCycle" route="route_21" depart="123" />
<vehicle id="Bus_371" type="MotorCycle" route="route_22" depart="123" />
<vehicle id="Bus_372" type="Car" route="route_22" depart="123" />
<vehicle id="Bus_373" type="MotorCycle" route="route_2" depart="124" />
<vehicle id="Auto_374" type="MotorCycle" route="route_20" depart="124" />