<routes>
<vType id="Bus" accel="0.6" decel="3.5" sigma="0.5" length="10.1" minGap="1.0" maxSpeed="16.67" carFollowModel="Wiedemann" guiShape="bus" width="2.45" latAlignment="left" laneChangeModel="SL2015" lcStrategic="0.5" lcCooperative="0.0"/>
<vType id="Auto" accel="0.7" decel="4.5" sigma="0.5" length="2.6" minGap="0.3" maxSpeed="16" carFollowModel="Wiedemann" guiShape="passenger/sedan" width="1.25" latAlignment="left" laneChangeModel="SL2015" lcStrategic="0.5" lcCooperative="0.0" />
<vType id="MotorCycle" accel="0.9" decel="3.5" sigma="0.5" length="1.85" minGap="0.15"  carFollowModel="Wiedemann" maxSpeed="17" guiShape="motorcycle" width="0.7" latAlignment="left" laneChangeModel="SL2015" lcStrategic="0.5" lcCooperative="0.0"/>
<vType id="Car" accel="0.8" decel="4.5" sigma="0.5" length="3.6" minGap="0.5" maxSpeed="40" carFollowModel="Wiedemann" guiShape="passenger" width="1.5" latAlignment="left" laneChangeModel="SL2015" lcStrategic="0.5" lcCooperative="0.0"/>
<vType id="emergency" accel="2.8" decel="5.5" sigma="0.5" length="3.6" minGap="0.5" maxSpeed="120.6" carFollowModel="Wiedemann" guiShape="emergency" width="1.5" latAlignment="left" laneChangeModel="SL2015" lcStrategic="0.5" lcCooperative="0.0" vClass="emergency" speedFactor="1.9" jmDriveAfterRedTime="300" jmDriveAfterRedSpeed="5.56">
<param key="has.bluelight.device" value="true"/>
<param key="has.fcd.device" value="true"/> 
</vType>
<route id="route_0" edges="1i 52i gneE0 gneE2" />
<route id="route_1" edges="-gneE2 -gneE0 52o 2i 1o" />
        <route id="route_2" edges="4i 3o" />
        <route id="route_3" edges="3i 4o" />
        <route id="route_4" edges="-gneE1 gneE3" /> 
        <route id="route_5" edges="4i 1o" />
        <route id="route_6" edges="4i 2o 52i gneE0 gneE1" />
        <route id="route_7" edges="2i 4o" />
        <route id="route_8" edges="2i 3o" />
        <route id="route_9" edges="-gneE1 gneE3" />
        <route id="route_10" edges="3i 2o 52i gneE0 gneE3" />
        <route id="route_11" edges="3i 1o" />
        <route id="route_12" edges="-gneE1 -gneE0 52o 2i 4o" />
        <route id="route_13" edges="-gneE1 gneE2" />
        <route id="route_14" edges="-gneE2 gneE1" />
        <route id="route_15" edges="-gneE2 gneE3" />
        <route id="route_16" edges="-gneE3 -gneE0 52o 2i 3o" />
        <route id="route_17" edges="-gneE3 gneE2" />
        <route id="route_18" edges="gneE0 gneE3" />
        <route id="route_19" edges="gneE0 gneE1" />
        <route id="route_20" edges="1i 2o 52i gneE0 gneE2 -gneE4 gneE5" />
        <route id="route_21" edges="-gneE5 gneE4 -gneE2 -gneE0 52o 2i 1o" />
        <route id="route_22" edges="-gneE5 gneE4 -gneE2 -gneE0 52o 2i 3o" />
        <route id="route_23" edges="1i 2o 52i gneE0 gneE2 -gneE4 gneE7" />

	<route id="route_24" edges="gneE0"/>
<vehicle id="emergency_0" type="emergency" route="route_3" depart="0" />
<vehicle id="Bus_0" type="Bus" route="route_3" depart="0" />
<vehicle id="Car_0" type="Car" route="route_18" depart="0" />
<vehicle id="Bus_1" type="MotorCycle" route="route_20" depart="1" />
<vehicle id="Auto_2" type="MotorCycle" route="route_21" depart="1" />
<vehicle id="MotorCycle_3" type="Car" route="route_22" depart="1" />
<vehicle id="Auto_4" type="Auto" route="route_23" depart="1" />
<vehicle id="Auto_5" type="MotorCycle" route="route_23" depart="1" />
<vehicle id="Auto_6" type="Car" route="route_23" depart="1" />
<vehicle id="MotorCycle_7" type="Car" route="route_24" depart="1" />
<vehicle id="Car_8" type="MotorCycle" route="route_2" depart="2" />
<vehicle id="Car_9" type="MotorCycle" route="route_12" depart="2" />
<vehicle id="Bus_10" type="MotorCycle" route="route_24" depart="2" />
<vehicle id="Bus_11" type="Car" route="route_24" depart="2" />
<vehicle id="Bus_12" type="MotorCycle" route="route_20" depart="3" />
<vehicle id="Car_13" type="MotorCycle" route="route_21" depart="3" />
<vehicle id="Car_14" type="Car" route="route_21" depart="3" />
<vehicle id="Bus_15" type="MotorCycle" route="route_22" depart="3" />
<vehicle id="Bus_16" type="Car" route="route_22" depart="3" />
<vehicle id="Car_17" type="Auto" route="route_23" depart="3" />
<vehicle id="Car_18" type="MotorCycle" route="route_23" depart="3" />
<vehicle id="Bus_19" type="MotorCycle" route="route_8" depart="4" />
<vehicle id="Bus_20" type="Car" route="route_8" depart="4" />
<vehicle id="Bus_21" type="MotorCycle" route="route_21" depart="4" />
<vehicle id="Bus_22" type="MotorCycle" route="route_24" depart="4" />
<vehicle id="MotorCycle_23" type="MotorCycle" route="route_10" depart="5" />
<vehicle id="Auto_24" type="MotorCycle" route="route_20" depart="5" />
<vehicle id="Auto_25" type="Car" route="route_20" depart="5" />
<vehicle id="Bus_26" type="MotorCycle" route="route_21" depart="5" />
<vehicle id="Bus_27" type="Car" route="route_21" depart="5" />
<vehicle id="MotorCycle_28" type="MotorCycle" route="route_22" depart="5" />
<vehicle id="Bus_29" type="MotorCycle" route="route_3" depart="6" />
<vehicle id="Auto_30" type="MotorCycle" route="route_20" depart="6" />
<vehicle id="Car_31" type="MotorCycle" route="route_20" depart="7" />
<vehicle id="Bus_32" type="MotorCycle" route="route_21" depart="7" />
<vehicle id="Bus_33" type="Auto" route="route_24" depart="7" />
<vehicle id="Bus_34" type="MotorCycle" route="route_24" depart="7" />
<vehicle id="Auto_35" type="MotorCycle" route="route_23" depart="8" />
<vehicle id="Car_36" type="MotorCycle" route="route_1" depart="9" />
<vehicle id="Bus_37" type="Car" route="route_19" depart="9" />
<vehicle id="Auto_38" type="Bus" route="route_20" depart="9" />
<vehicle id="Auto_39" type="MotorCycle" route="route_20" depart="9" />
<vehicle id="Car_40" type="MotorCycle" route="route_21" depart="9" />
<vehicle id="Car_41" type="MotorCycle" route="route_20" depart="10" />
<vehicle id="MotorCycle_42" type="MotorCycle" route="route_22" depart="10" />
<vehicle id="Car_43" type="MotorCycle" route="route_4" depart="11" />
<vehicle id="Bus_44" type="MotorCycle" route="route_17" depart="11" />
<vehicle id="Auto_45" type="MotorCycle" route="route_19" depart="11" />
<vehicle id="Auto_46" type="Car" route="route_19" depart="11" />
<vehicle id="MotorCycle_47" type="MotorCycle" route="route_20" depart="12" />
<vehicle id="Auto_48" type="MotorCycle" route="route_22" depart="12" />
<vehicle id="MotorCycle_49" type="MotorCycle" route="route_11" depart="13" />
<vehicle id="Car_50" type="MotorCycle" route="route_22" depart="13" />
<vehicle id="MotorCycle_51" type="MotorCycle" route="route_23" depart="13" />
<vehicle id="Auto_52" type="MotorCycle" route="route_24" depart="13" />
<vehicle id="MotorCycle_53" type="MotorCycle" route="route_3" depart="14" />
<vehicle id="Car_54" type="MotorCycle" route="route_19" depart="14" />
<vehicle id="Auto_55" type="MotorCycle" route="route_21" depart="14" />
<vehicle id="Auto_56" type="Car" route="route_21" depart="14" />
<vehicle id="MotorCycle_57" type="MotorCycle" route="route_14" depart="15" />
<vehicle id="Auto_58" type="MotorCycle" route="route_21" depart="15" />
<vehicle id="MotorCycle_59" type="MotorCycle" route="route_22" depart="16" />
<vehicle id="MotorCycle_60" type="MotorCycle" route="route_19" depart="17" />
<vehicle id="Car_61" type="MotorCycle" route="route_21" depart="17" />
<vehicle id="Bus_62" type="Auto" route="route_24" depart="17" />
<vehicle id="Bus_63" type="MotorCycle" route="route_24" depart="17" />
<vehicle id="MotorCycle_64" type="MotorCycle" route="route_3" depart="18" />
<vehicle id="Auto_65" type="MotorCycle" route="route_19" depart="19" />
<vehicle id="Bus_66" type="MotorCycle" route="route_22" depart="19" />
<vehicle id="MotorCycle_67" type="Auto" route="route_21" depart="20" />
<vehicle id="Auto_68" type="MotorCycle" route="route_15" depart="21" />
<vehicle id="Auto_69" type="MotorCycle" route="route_22" depart="21" />
<vehicle id="Bus_70" type="MotorCycle" route="route_24" depart="21" />
<vehicle id="Bus_71" type="Car" route="route_24" depart="21" />
<vehicle id="Car_72" type="MotorCycle" route="route_8" depart="22" />
<vehicle id="Car_73" type="Car" route="route_8" depart="22" />
<vehicle id="Auto_74" type="MotorCycle" route="route_21" depart="22" />
<vehicle id="Car_75" type="MotorCycle" route="route_24" depart="22" />
<vehicle id="Car_76" type="MotorCycle" route="route_3" depart="23" />
<vehicle id="Car_77" type="Car" route="route_3" depart="23" />
<vehicle id="MotorCycle_78" type="MotorCycle" route="route_20" depart="23" />
<vehicle id="MotorCycle_79" type="MotorCycle" route="route_24" depart="23" />
<vehicle id="MotorCycle_80" type="Car" route="route_24" depart="23" />
<vehicle id="Auto_81" type="MotorCycle" route="route_7" depart="24" />
<vehicle id="MotorCycle_82" type="MotorCycle" route="route_22" depart="24" />
<vehicle id="MotorCycle_83" type="Car" route="route_22" depart="24" />
<vehicle id="Auto_84" type="Car" route="route_23" depart="24" />
<vehicle id="Car_85" type="MotorCycle" route="route_7" depart="25" />
<vehicle id="Car_86" type="Car" route="route_7" depart="25" />
<vehicle id="Bus_87" type="MotorCycle" route="route_21" depart="26" />
<vehicle id="Auto_88" type="Auto" route="route_23" depart="26" />
<vehicle id="Auto_89" type="MotorCycle" route="route_23" depart="26" />
<vehicle id="Bus_90" type="MotorCycle" route="route_4" depart="27" />
<vehicle id="Bus_91" type="Car" route="route_4" depart="27" />
<vehicle id="MotorCycle_92" type="MotorCycle" route="route_22" depart="27" />
<vehicle id="MotorCycle_93" type="MotorCycle" route="route_12" depart="28" />
<vehicle id="MotorCycle_94" type="Car" route="route_12" depart="28" />
<vehicle id="Bus_95" type="MotorCycle" route="route_19" depart="28" />
<vehicle id="Bus_96" type="Car" route="route_19" depart="28" />
<vehicle id="Bus_97" type="MotorCycle" route="route_21" depart="28" />
<vehicle id="Auto_98" type="MotorCycle" route="route_24" depart="30" />
<vehicle id="Auto_99" type="Car" route="route_24" depart="30" />
<vehicle id="Auto_100" type="MotorCycle" route="route_21" depart="31" />
<vehicle id="Car_101" type="Auto" route="route_19" depart="32" />
<vehicle id="Car_102" type="MotorCycle" route="route_19" depart="32" />
<vehicle id="MotorCycle_103" type="MotorCycle" route="route_21" depart="32" />
<vehicle id="Bus_104" type="MotorCycle" route="route_22" depart="32" />
<vehicle id="Car_105" type="MotorCycle" route="route_21" depart="33" />
<vehicle id="Bus_106" type="MotorCycle" route="route_5" depart="34" />
<vehicle id="MotorCycle_107" type="MotorCycle" route="route_22" depart="34" />
<vehicle id="Auto_108" type="MotorCycle" route="route_1" depart="36" />
<vehicle id="Auto_109" type="MotorCycle" route="route_8" depart="36" />
<vehicle id="Auto_110" type="MotorCycle" route="route_9" depart="36" />
<vehicle id="Car_111" type="MotorCycle" route="route_12" depart="36" />
<vehicle id="Car_112" type="MotorCycle" route="route_19" depart="36" />
<vehicle id="Car_113" type="Auto" route="route_5" depart="37" />
<vehicle id="Car_114" type="MotorCycle" route="route_5" depart="37" />
<vehicle id="Car_115" type="MotorCycle" route="route_22" depart="37" />
<vehicle id="Bus_116" type="MotorCycle" route="route_21" depart="39" />
<vehicle id="Auto_117" type="MotorCycle" route="route_22" depart="39" />
<vehicle id="Auto_118" type="MotorCycle" route="route_12" depart="40" />
<vehicle id="Auto_119" type="Car" route="route_12" depart="40" />
<vehicle id="Car_120" type="MotorCycle" route="route_23" depart="40" />
<vehicle id="Auto_121" type="MotorCycle" route="route_24" depart="40" />
<vehicle id="MotorCycle_122" type="MotorCycle" route="route_4" depart="41" />
<vehicle id="Auto_123" type="MotorCycle" route="route_5" depart="41" />
<vehicle id="Auto_124" type="Car" route="route_5" depart="41" />
<vehicle id="Bus_125" type="MotorCycle" route="route_9" depart="41" />
<vehicle id="Car_126" type="Auto" route="route_24" depart="41" />
<vehicle id="Car_127" type="MotorCycle" route="route_24" depart="41" />
<vehicle id="Car_128" type="MotorCycle" route="route_22" depart="42" />
<vehicle id="MotorCycle_129" type="MotorCycle" route="route_21" depart="43" />
<vehicle id="Car_130" type="MotorCycle" route="route_24" depart="43" />
<vehicle id="Auto_131" type="MotorCycle" route="route_19" depart="44" />
<vehicle id="MotorCycle_132" type="Auto" route="route_21" depart="44" />
<vehicle id="MotorCycle_133" type="MotorCycle" route="route_21" depart="44" />
<vehicle id="Car_134" type="MotorCycle" route="route_24" depart="45" />
<vehicle id="Bus_135" type="MotorCycle" route="route_21" depart="46" />
<vehicle id="MotorCycle_136" type="MotorCycle" route="route_11" depart="47" />
<vehicle id="Bus_137" type="MotorCycle" route="route_23" depart="47" />
<vehicle id="MotorCycle_138" type="MotorCycle" route="route_24" depart="47" />
<vehicle id="MotorCycle_139" type="Car" route="route_24" depart="47" />
<vehicle id="Car_140" type="MotorCycle" route="route_21" depart="49" />
<vehicle id="Car_141" type="Car" route="route_21" depart="49" />
<vehicle id="MotorCycle_142" type="MotorCycle" route="route_22" depart="49" />
<vehicle id="Car_143" type="MotorCycle" route="route_23" depart="49" />
<vehicle id="MotorCycle_144" type="MotorCycle" route="route_2" depart="50" />
<vehicle id="Auto_145" type="MotorCycle" route="route_20" depart="50" />
<vehicle id="Car_146" type="MotorCycle" route="route_23" depart="50" />
<vehicle id="Car_147" type="MotorCycle" route="route_21" depart="52" />
<vehicle id="MotorCycle_148" type="MotorCycle" route="route_22" depart="52" />
<vehicle id="Car_149" type="MotorCycle" route="route_22" depart="53" />
<vehicle id="MotorCycle_150" type="MotorCycle" route="route_24" depart="53" />
<vehicle id="MotorCycle_151" type="Car" route="route_24" depart="53" />
<vehicle id="Bus_152" type="MotorCycle" route="route_21" depart="54" />
<vehicle id="Bus_153" type="MotorCycle" route="route_23" depart="54" />
<vehicle id="MotorCycle_154" type="MotorCycle" route="route_19" depart="55" />
<vehicle id="Bus_155" type="Auto" route="route_20" depart="55" />
<vehicle id="MotorCycle_156" type="MotorCycle" route="route_21" depart="55" />
<vehicle id="MotorCycle_157" type="MotorCycle" route="route_24" depart="57" />
<vehicle id="MotorCycle_158" type="Car" route="route_24" depart="57" />
<vehicle id="Auto_159" type="MotorCycle" route="route_19" depart="58" />
<vehicle id="Car_160" type="MotorCycle" route="route_21" depart="58" />
<vehicle id="Car_161" type="Car" route="route_21" depart="58" />
<vehicle id="Car_162" type="MotorCycle" route="route_22" depart="58" />
<vehicle id="MotorCycle_163" type="MotorCycle" route="route_24" depart="58" />
<vehicle id="Bus_164" type="Car" route="route_1" depart="59" />
<vehicle id="MotorCycle_165" type="MotorCycle" route="route_21" depart="59" />
<vehicle id="MotorCycle_166" type="MotorCycle" route="route_3" depart="60" />
<vehicle id="Car_167" type="MotorCycle" route="route_21" depart="60" />
<vehicle id="MotorCycle_168" type="Bus" route="route_1" depart="61" />
<vehicle id="MotorCycle_169" type="MotorCycle" route="route_1" depart="61" />
<vehicle id="MotorCycle_170" type="MotorCycle" route="route_19" depart="61" />
<vehicle id="Bus_171" type="Auto" route="route_22" depart="61" />
<vehicle id="Bus_172" type="MotorCycle" route="route_22" depart="61" />
<vehicle id="Bus_173" type="Car" route="route_22" depart="61" />
<vehicle id="MotorCycle_174" type="MotorCycle" route="route_3" depart="62" />
<vehicle id="MotorCycle_175" type="MotorCycle" route="route_21" depart="62" />
<vehicle id="Auto_176" type="MotorCycle" route="route_22" depart="62" />
<vehicle id="Car_177" type="Car" route="route_24" depart="62" />
<vehicle id="Auto_178" type="MotorCycle" route="route_2" depart="64" />
<vehicle id="MotorCycle_179" type="MotorCycle" route="route_8" depart="64" />
<vehicle id="Bus_180" type="MotorCycle" route="route_19" depart="64" />
<vehicle id="Bus_181" type="MotorCycle" route="route_21" depart="65" />
<vehicle id="Bus_182" type="Car" route="route_21" depart="65" />
<vehicle id="MotorCycle_183" type="Auto" route="route_22" depart="65" />
<vehicle id="MotorCycle_184" type="MotorCycle" route="route_22" depart="65" />
<vehicle id="Car_185" type="MotorCycle" route="route_21" depart="66" />
<vehicle id="Car_186" type="Car" route="route_21" depart="66" />
<vehicle id="MotorCycle_187" type="MotorCycle" route="route_22" depart="66" />
<vehicle id="Car_188" type="MotorCycle" route="route_22" depart="67" />
<vehicle id="Auto_189" type="MotorCycle" route="route_24" depart="67" />
<vehicle id="Auto_190" type="Car" route="route_24" depart="67" />
<vehicle id="Auto_191" type="MotorCycle" route="route_21" depart="68" />
<vehicle id="MotorCycle_192" type="MotorCycle" route="route_21" depart="69" />
<vehicle id="Bus_193" type="Auto" route="route_22" depart="69" />
<vehicle id="Bus_194" type="MotorCycle" route="route_22" depart="69" />
<vehicle id="Bus_195" type="Car" route="route_22" depart="69" />
<vehicle id="Bus_196" type="MotorCycle" route="route_23" depart="69" />
<vehicle id="Bus_197" type="Car" route="route_3" depart="71" />
<vehicle id="Bus_198" type="MotorCycle" route="route_20" depart="71" />
<vehicle id="Bus_199" type="MotorCycle" route="route_21" depart="71" />
<vehicle id="Bus_200" type="MotorCycle" route="route_22" depart="71" />
<vehicle id="MotorCycle_201" type="MotorCycle" route="route_22" depart="72" />
<vehicle id="Auto_202" type="MotorCycle" route="route_19" depart="73" />
<vehicle id="Auto_203" type="MotorCycle" route="route_23" depart="73" />
<vehicle id="Auto_204" type="MotorCycle" route="route_24" depart="73" />
<vehicle id="Car_205" type="MotorCycle" route="route_24" depart="74" />
<vehicle id="Bus_206" type="MotorCycle" route="route_3" depart="75" />
<vehicle id="Auto_207" type="MotorCycle" route="route_8" depart="75" />
<vehicle id="MotorCycle_208" type="Auto" route="route_19" depart="75" />
<vehicle id="MotorCycle_209" type="MotorCycle" route="route_19" depart="75" />
<vehicle id="Auto_210" type="MotorCycle" route="route_23" depart="75" />
<vehicle id="Auto_211" type="MotorCycle" route="route_24" depart="75" />
<vehicle id="Bus_212" type="MotorCycle" route="route_4" depart="76" />
<vehicle id="Car_213" type="MotorCycle" route="route_22" depart="76" />
<vehicle id="Car_214" type="MotorCycle" route="route_23" depart="76" />
<vehicle id="Auto_215" type="MotorCycle" route="route_20" depart="77" />
<vehicle id="MotorCycle_216" type="MotorCycle" route="route_21" depart="77" />
<vehicle id="Bus_217" type="MotorCycle" route="route_20" depart="78" />
<vehicle id="Bus_218" type="MotorCycle" route="route_22" depart="78" />
<vehicle id="MotorCycle_219" type="MotorCycle" route="route_23" depart="78" />
<vehicle id="MotorCycle_220" type="Car" route="route_23" depart="78" />
<vehicle id="Car_221" type="Auto" route="route_21" depart="79" />
<vehicle id="Car_222" type="MotorCycle" route="route_21" depart="79" />
<vehicle id="Car_223" type="MotorCycle" route="route_22" depart="80" />
<vehicle id="Car_224" type="MotorCycle" route="route_23" depart="80" />
<vehicle id="Auto_225" type="MotorCycle" route="route_11" depart="81" />
<vehicle id="Bus_226" type="MotorCycle" route="route_21" depart="81" />
<vehicle id="Car_227" type="MotorCycle" route="route_22" depart="81" />
<vehicle id="MotorCycle_228" type="MotorCycle" route="route_23" depart="81" />
<vehicle id="MotorCycle_229" type="Car" route="route_23" depart="81" />
<vehicle id="Bus_230" type="MotorCycle" route="route_19" depart="84" />
<vehicle id="Bus_231" type="MotorCycle" route="route_23" depart="84" />
<vehicle id="Auto_232" type="MotorCycle" route="route_20" depart="85" />
<vehicle id="MotorCycle_233" type="Auto" route="route_21" depart="85" />
<vehicle id="MotorCycle_234" type="MotorCycle" route="route_21" depart="85" />
<vehicle id="MotorCycle_235" type="Car" route="route_21" depart="85" />
<vehicle id="Auto_236" type="Auto" route="route_24" depart="85" />
<vehicle id="Auto_237" type="MotorCycle" route="route_24" depart="85" />
<vehicle id="Auto_238" type="MotorCycle" route="route_5" depart="86" />
<vehicle id="MotorCycle_239" type="MotorCycle" route="route_20" depart="86" />
<vehicle id="MotorCycle_240" type="MotorCycle" route="route_21" depart="86" />
<vehicle id="Auto_241" type="MotorCycle" route="route_4" depart="87" />
<vehicle id="Auto_242" type="MotorCycle" route="route_22" depart="87" />
<vehicle id="Car_243" type="MotorCycle" route="route_24" depart="87" />
<vehicle id="Car_244" type="MotorCycle" route="route_3" depart="88" />
<vehicle id="Bus_245" type="MotorCycle" route="route_12" depart="88" />
<vehicle id="Bus_246" type="MotorCycle" route="route_19" depart="88" />
<vehicle id="Bus_247" type="Car" route="route_19" depart="88" />
<vehicle id="Car_248" type="MotorCycle" route="route_20" depart="88" />
<vehicle id="MotorCycle_249" type="MotorCycle" route="route_24" depart="88" />
<vehicle id="Car_250" type="MotorCycle" route="route_24" depart="89" />
<vehicle id="Auto_251" type="MotorCycle" route="route_20" depart="91" />
<vehicle id="MotorCycle_252" type="MotorCycle" route="route_21" depart="91" />
<vehicle id="Bus_253" type="MotorCycle" route="route_23" depart="91" />
<vehicle id="Bus_254" type="MotorCycle" route="route_4" depart="92" />
<vehicle id="MotorCycle_255" type="MotorCycle" route="route_22" depart="92" />
<vehicle id="MotorCycle_256" type="Car" route="route_22" depart="92" />
<vehicle id="Auto_257" type="MotorCycle" route="route_2" depart="93" />
<vehicle id="Auto_258" type="Car" route="route_2" depart="93" />
<vehicle id="MotorCycle_259" type="MotorCycle" route="route_13" depart="93" />
<vehicle id="Car_260" type="Auto" route="route_19" depart="93" />
<vehicle id="Car_261" type="MotorCycle" route="route_19" depart="93" />
<vehicle id="MotorCycle_262" type="Bus" route="route_21" depart="93" />
<vehicle id="MotorCycle_263" type="MotorCycle" route="route_22" depart="93" />
<vehicle id="Bus_264" type="MotorCycle" route="route_22" depart="94" />
<vehicle id="MotorCycle_265" type="MotorCycle" route="route_22" depart="95" />
<vehicle id="MotorCycle_266" type="Car" route="route_22" depart="95" />
<vehicle id="MotorCycle_267" type="MotorCycle" route="route_3" depart="96" />
<vehicle id="Car_268" type="MotorCycle" route="route_6" depart="96" />
<vehicle id="MotorCycle_269" type="MotorCycle" route="route_21" depart="96" />
<vehicle id="MotorCycle_270" type="MotorCycle" route="route_22" depart="96" />
<vehicle id="Auto_271" type="MotorCycle" route="route_23" depart="96" />
<vehicle id="Bus_272" type="MotorCycle" route="route_24" depart="97" />
<vehicle id="MotorCycle_273" type="MotorCycle" route="route_3" depart="98" />
<vehicle id="Auto_274" type="MotorCycle" route="route_9" depart="98" />
<vehicle id="Car_275" type="MotorCycle" route="route_19" depart="99" />
<vehicle id="Car_276" type="Car" route="route_19" depart="99" />
<vehicle id="MotorCycle_277" type="MotorCycle" route="route_7" depart="100" />
<vehicle id="Bus_278" type="MotorCycle" route="route_8" depart="100" />
<vehicle id="MotorCycle_279" type="MotorCycle" route="route_21" depart="100" />
<vehicle id="Bus_280" type="MotorCycle" route="route_22" depart="100" />
<vehicle id="Bus_281" type="Car" route="route_22" depart="100" />
<vehicle id="Auto_282" type="MotorCycle" route="route_23" depart="100" />
<vehicle id="Auto_283" type="MotorCycle" route="route_24" depart="100" />
<vehicle id="Bus_284" type="MotorCycle" route="route_22" depart="101" />
<vehicle id="Bus_285" type="Car" route="route_24" depart="101" />
<vehicle id="Auto_286" type="MotorCycle" route="route_21" depart="102" />
<vehicle id="Auto_287" type="MotorCycle" route="route_22" depart="102" />
<vehicle id="Car_288" type="MotorCycle" route="route_10" depart="103" />
<vehicle id="Car_289" type="Bus" route="route_19" depart="103" />
<vehicle id="Auto_290" type="MotorCycle" route="route_21" depart="103" />
<vehicle id="Auto_291" type="MotorCycle" route="route_9" depart="104" />
<vehicle id="MotorCycle_292" type="MotorCycle" route="route_21" depart="104" />
<vehicle id="Car_293" type="MotorCycle" route="route_22" depart="105" />
<vehicle id="Auto_294" type="MotorCycle" route="route_12" depart="106" />
<vehicle id="Auto_295" type="Car" route="route_12" depart="106" />
<vehicle id="MotorCycle_296" type="MotorCycle" route="route_13" depart="106" />
<vehicle id="Bus_297" type="Auto" route="route_19" depart="106" />
<vehicle id="Bus_298" type="MotorCycle" route="route_19" depart="106" />
<vehicle id="Car_299" type="MotorCycle" route="route_22" depart="106" />
<vehicle id="MotorCycle_300" type="MotorCycle" route="route_22" depart="107" />
<vehicle id="Auto_301" type="Car" route="route_23" depart="107" />
<vehicle id="Car_302" type="MotorCycle" route="route_24" depart="107" />
<vehicle id="MotorCycle_303" type="Auto" route="route_13" depart="108" />
<vehicle id="MotorCycle_304" type="MotorCycle" route="route_13" depart="108" />
<vehicle id="Bus_305" type="MotorCycle" route="route_20" depart="108" />
<vehicle id="Auto_306" type="MotorCycle" route="route_21" depart="108" />
<vehicle id="MotorCycle_307" type="MotorCycle" route="route_21" depart="109" />
<vehicle id="Car_308" type="MotorCycle" route="route_22" depart="109" />
<vehicle id="MotorCycle_309" type="MotorCycle" route="route_24" depart="110" />
<vehicle id="MotorCycle_310" type="Car" route="route_24" depart="110" />
<vehicle id="Auto_311" type="MotorCycle" route="route_19" depart="111" />
<vehicle id="Car_312" type="MotorCycle" route="route_21" depart="111" />
<vehicle id="Car_313" type="Car" route="route_21" depart="111" />
<vehicle id="Car_314" type="MotorCycle" route="route_22" depart="111" />
<vehicle id="Bus_315" type="MotorCycle" route="route_5" depart="113" />
<vehicle id="Bus_316" type="MotorCycle" route="route_21" depart="113" />
<vehicle id="Bus_317" type="MotorCycle" route="route_9" depart="114" />
<vehicle id="Car_318" type="MotorCycle" route="route_20" depart="114" />
<vehicle id="Car_319" type="MotorCycle" route="route_22" depart="114" />
<vehicle id="Bus_320" type="MotorCycle" route="route_24" depart="114" />
<vehicle id="Car_321" type="MotorCycle" route="route_22" depart="115" />
<vehicle id="Car_322" type="Car" route="route_22" depart="115" />
<vehicle id="Auto_323" type="MotorCycle" route="route_1" depart="116" />
<vehicle id="Bus_324" type="MotorCycle" route="route_21" depart="116" />
<vehicle id="Bus_325" type="MotorCycle" route="route_22" depart="116" />
<vehicle id="Bus_326" type="Car" route="route_22" depart="116" />
<vehicle id="MotorCycle_327" type="MotorCycle" route="route_23" depart="116" />
<vehicle id="MotorCycle_328" type="MotorCycle" route="route_24" depart="116" />
<vehicle id="Car_329" type="Car" route="route_4" depart="117" />
<vehicle id="Auto_330" type="MotorCycle" route="route_8" depart="117" />
<vehicle id="Auto_331" type="Car" route="route_8" depart="117" />
<vehicle id="Car_332" type="MotorCycle" route="route_22" depart="117" />
<vehicle id="Car_333" type="MotorCycle" route="route_20" depart="118" />
<vehicle id="Bus_334" type="MotorCycle" route="route_21" depart="118" />
<vehicle id="Car_335" type="MotorCycle" route="route_22" depart="118" />
<vehicle id="Car_336" type="Car" route="route_22" depart="118" />
<vehicle id="MotorCycle_337" type="MotorCycle" route="route_15" depart="119" />
<vehicle id="MotorCycle_338" type="Car" route="route_15" depart="119" />
<vehicle id="MotorCycle_339" type="MotorCycle" route="route_21" depart="119" />
<vehicle id="Auto_340" type="MotorCycle" route="route_24" depart="119" />
<vehicle id="Car_341" type="MotorCycle" route="route_21" depart="120" />
<vehicle id="Bus_342" type="MotorCycle" route="route_22" depart="120" />
<vehicle id="Auto_343" type="MotorCycle" route="route_23" depart="120" />
<vehicle id="MotorCycle_344" type="MotorCycle" route="route_8" depart="121" />
<vehicle id="Car_345" type="MotorCycle" route="route_19" depart="121" />
<vehicle id="Auto_346" type="MotorCycle" route="route_21" depart="121" />
<vehicle id="Auto_347" type="Auto" route="route_22" depart="121" />
<vehicle id="Auto_348" type="MotorCycle" route="route_22" depart="121" />
<vehicle id="Bus_349" type="MotorCycle" route="route_20" depart="122" />
<vehicle id="Car_350" type="MotorCycle" route="route_6" depart="123" />
<vehicle id="Auto_351" type="MotorCycle" route="route_23" depart="123" />
<vehicle id="Auto_352" type="Car" route="route_23" depart="124" />
<vehicle id="Bus_353" type="MotorCycle" route="route_19" depart="125" />
<vehicle id="MotorCycle_354" type="MotorCycle" route="route_20" depart="125" />
<vehicle id="Auto_355" type="MotorCycle" route="route_1" depart="126" />
<vehicle id="Car_356" type="Car" route="route_23" depart="126" />
<vehicle id="Auto_357" type="MotorCycle" route="route_1" depart="127" />
<vehicle id="Auto_358" type="Car" route="route_1" depart="127" />
<vehicle id="MotorCycle_359" type="MotorCycle" route="route_19" depart="127" />
<vehicle id="Car_360" type="MotorCycle" route="route_22" depart="127" />
<vehicle id="Bus_361" type="MotorCycle" route="route_23" depart="127" />
<vehicle id="Bus_362" type="Car" route="route_23" depart="127" />
<vehicle id="MotorCycle_363" type="MotorCycle" route="route_24" depart="127" />
<vehicle id="Bus_364" type="MotorCycle" route="route_8" depart="128" />
<vehicle id="Auto_365" type="Auto" route="route_10" depart="128" />
<vehicle id="Auto_366" type="MotorCycle" route="route_10" depart="128" />
<vehicle id="Bus_367" type="Auto" route="route_24" depart="128" />
<vehicle id="Bus_368" type="MotorCycle" route="route_24" depart="128" />
<vehicle id="MotorCycle_369" type="MotorCycle" route="route_3" depart="129" />
<vehicle id="MotorCycle_370" type="Car" route="route_3" depart="129" />
<vehicle id="Auto_371" type="MotorCycle" route="route_6" depart="129" />
<vehicle id="Auto_372" type="Car" route="route_6" depart="129" />
<vehicle id="Car_373" type="MotorCycle" route="route_8" depart="129" />
<vehicle id="Auto_374" type="MotorCycle" route="route_4" depart="130" />