<routes>
<vType id="Bus" accel="0.6" decel="3.5" sigma="0.5" length="10.1" minGap="1.0" maxSpeed="16.67" carFollowModel="Wiedemann" guiShape="bus" width="2.45" latAlignment="left" laneChangeModel="SL2015" lcStrategic="0.5" lcCooperative="0.0"/>
<vType id="Auto" accel="0.7" decel="4.5" sigma="0.5" length="2.6" minGap="0.3" maxSpeed="16" carFollowModel="Wiedemann" guiShape="passenger/sedan" width="1.25" latAlignment="left" laneChangeModel="SL2015" lcStrategic="0.5" lcCooperative="0.0" />
<vType id="MotorCycle" accel="0.9" decel="3.5" sigma="0.5" length="1.85" minGap="0.15"  carFollowModel="Wiedemann" maxSpeed="17" guiShape="motorcycle" width="0.7" latAlignment="left" laneChangeModel="SL2015" lcStrategic="0.5" lcCooperative="0.0"/>
<vType id="Car" accel="0.8" decel="4.5" sigma="0.5" length="3.6" minGap="0.5" maxSpeed="40" carFollowModel="Wiedemann" guiShape="passenger" width="1.5" latAlignment="left" laneChangeModel="SL2015" lcStrategic="0.5" lcCooperative="0.0"/>
<vType id="emergency" accel="2.8" decel="5.5" sigma="0.5" length="3.6" minGap="0.5" maxSpeed="120.6" carFollowModel="Wiedemann" guiShape="emergency" width="1.5" latAlignment="left" laneChangeModel="SL2015" lcStrategic="0.5" lcCooperative="0.0" vClass="emergency" speedFactor="1.9" jmDriveAfterRedTime="300" jmDriveAfterRedSpeed="5.56">
<param key="has.bluelight.device" value="true"/>
<param key="has.fcd.device" value="true"/> 
</vType>
<route id="route_0" edges="1i 52i gneE0 gneE2" />
<route id="route_1" edges="-gneE2 -gneE0 52o 2i 1o" />
        <route id="route_2" edges="4i 3o" />
        <route id="route_3" edges="3i 4o" />
        <route id="route_4" edges="-gneE1 gneE3" /> 
        <route id="route_5" edges="4i 1o" />
        <route id="route_6" edges="4i 2o 52i gneE0 gneE1" />
        <route id="route_7" edges="2i 4o" />
        <route id="route_8" edges="2i 3o" />
        <route id="route_9" edges="-gneE1 gneE3" />
        <route id="route_10" edges="3i 2o 52i gneE0 gneE3" />
        <route id="route_11" edges="3i 1o" />
        <route id="route_12" edges="-gneE1 -gneE0 52o 2i 4o" />
        <route id="route_13" edges="-gneE1 gneE2" />
        <route id="route_14" edges="-gneE2 gneE1" />
        <route id="route_15" edges="-gneE2 gneE3" />
        <route id="route_16" edges="-gneE3 -gneE0 52o 2i 3o" />
        <route id="route_17" edges="-gneE3 gneE2" />
        <route id="route_18" edges="gneE0 gneE3" />
        <route id="route_19" edges="gneE0 gneE1" />
        <route id="route_20" edges="1i 2o 52i gneE0 gneE2 -gneE4 gneE5" />
        <route id="route_21" edges="-gneE5 gneE4 -gneE2 -gneE0 52o 2i 1o" />
        <route id="route_22" edges="-gneE5 gneE4 -gneE2 -gneE0 52o 2i 3o" />
        <route id="route_23" edges="1i 2o 52i gneE0 gneE2 -gneE4 gneE7" />

	<route id="route_24" edges="gneE0"/>
<vehicle id="emergency_0" type="emergency" route="route_22" depart="0" />
<vehicle id="Bus_0" type="Bus" route="route_22" depart="0" />
<vehicle id="Car_0" type="Car" route="route_4" depart="0" />
<vehicle id="Bus_1" type="MotorCycle" route="route_8" depart="1" />
<vehicle id="Auto_2" type="MotorCycle" route="route_14" depart="1" />
<vehicle id="Auto_3" type="MotorCycle" route="route_20" depart="2" />
<vehicle id="MotorCycle_4" type="MotorCycle" route="route_23" depart="2" />
<vehicle id="MotorCycle_5" type="Car" route="route_23" depart="2" />
<vehicle id="MotorCycle_6" type="MotorCycle" route="route_24" depart="2" />
<vehicle id="Car_7" type="MotorCycle" route="route_21" depart="3" />
<vehicle id="MotorCycle_8" type="MotorCycle" route="route_24" depart="3" />
<vehicle id="MotorCycle_9" type="Car" route="route_24" depart="3" />
<vehicle id="MotorCycle_10" type="MotorCycle" route="route_16" depart="4" />
<vehicle id="Bus_11" type="MotorCycle" route="route_19" depart="4" />
<vehicle id="Car_12" type="MotorCycle" route="route_21" depart="4" />
<vehicle id="Bus_13" type="MotorCycle" route="route_23" depart="5" />
<vehicle id="Bus_14" type="Car" route="route_24" depart="5" />
<vehicle id="Car_15" type="Bus" route="route_20" depart="6" />
<vehicle id="Car_16" type="MotorCycle" route="route_24" depart="6" />
<vehicle id="Auto_17" type="MotorCycle" route="route_3" depart="7" />
<vehicle id="Bus_18" type="MotorCycle" route="route_4" depart="7" />
<vehicle id="MotorCycle_19" type="MotorCycle" route="route_24" depart="7" />
<vehicle id="MotorCycle_20" type="Car" route="route_24" depart="7" />
<vehicle id="Auto_21" type="MotorCycle" route="route_20" depart="8" />
<vehicle id="Bus_22" type="MotorCycle" route="route_21" depart="8" />
<vehicle id="Bus_23" type="Car" route="route_21" depart="8" />
<vehicle id="MotorCycle_24" type="MotorCycle" route="route_22" depart="8" />
<vehicle id="Bus_25" type="Auto" route="route_22" depart="9" />
<vehicle id="Bus_26" type="MotorCycle" route="route_22" depart="9" />
<vehicle id="MotorCycle_27" type="MotorCycle" route="route_12" depart="10" />
<vehicle id="MotorCycle_28" type="Car" route="route_12" depart="10" />
<vehicle id="Auto_29" type="MotorCycle" route="route_22" depart="10" />
<vehicle id="Bus_30" type="MotorCycle" route="route_23" depart="10" />
<vehicle id="MotorCycle_31" type="MotorCycle" route="route_22" depart="11" />
<vehicle id="Bus_32" type="Car" route="route_24" depart="11" />
<vehicle id="Car_33" type="MotorCycle" route="route_19" depart="12" />
<vehicle id="Auto_34" type="MotorCycle" route="route_19" depart="13" />
<vehicle id="Car_35" type="Car" route="route_20" depart="13" />
<vehicle id="MotorCycle_36" type="MotorCycle" route="route_11" depart="14" />
<vehicle id="MotorCycle_37" type="MotorCycle" route="route_21" depart="14" />
<vehicle id="Car_38" type="MotorCycle" route="route_22" depart="14" />
<vehicle id="Bus_39" type="MotorCycle" route="route_3" depart="15" />
<vehicle id="Bus_40" type="Car" route="route_3" depart="15" />
<vehicle id="Auto_41" type="MotorCycle" route="route_21" depart="15" />
<vehicle id="Auto_42" type="Car" route="route_21" depart="15" />
<vehicle id="Car_43" type="MotorCycle" route="route_3" depart="16" />
<vehicle id="Car_44" type="Car" route="route_3" depart="16" />
<vehicle id="Car_45" type="MotorCycle" route="route_23" depart="16" />
<vehicle id="MotorCycle_46" type="MotorCycle" route="route_24" depart="16" />
<vehicle id="Bus_47" type="MotorCycle" route="route_19" depart="17" />
<vehicle id="MotorCycle_48" type="Auto" route="route_24" depart="17" />
<vehicle id="MotorCycle_49" type="MotorCycle" route="route_24" depart="17" />
<vehicle id="Car_50" type="MotorCycle" route="route_11" depart="18" />
<vehicle id="Car_51" type="MotorCycle" route="route_14" depart="19" />
<vehicle id="Car_52" type="MotorCycle" route="route_8" depart="20" />
<vehicle id="MotorCycle_53" type="MotorCycle" route="route_12" depart="20" />
<vehicle id="Bus_54" type="MotorCycle" route="route_21" depart="20" />
<vehicle id="Car_55" type="MotorCycle" route="route_7" depart="21" />
<vehicle id="Auto_56" type="MotorCycle" route="route_21" depart="21" />
<vehicle id="Auto_57" type="MotorCycle" route="route_24" depart="21" />
<vehicle id="Auto_58" type="Car" route="route_19" depart="22" />
<vehicle id="MotorCycle_59" type="MotorCycle" route="route_3" depart="23" />
<vehicle id="Bus_60" type="MotorCycle" route="route_22" depart="23" />
<vehicle id="Bus_61" type="MotorCycle" route="route_23" depart="23" />
<vehicle id="Bus_62" type="Car" route="route_23" depart="23" />
<vehicle id="Bus_63" type="MotorCycle" route="route_24" depart="23" />
<vehicle id="Car_64" type="MotorCycle" route="route_21" depart="24" />
<vehicle id="MotorCycle_65" type="MotorCycle" route="route_22" depart="24" />
<vehicle id="MotorCycle_66" type="Car" route="route_22" depart="24" />
<vehicle id="MotorCycle_67" type="MotorCycle" route="route_19" depart="25" />
<vehicle id="Auto_68" type="MotorCycle" route="route_20" depart="25" />
<vehicle id="Auto_69" type="MotorCycle" route="route_21" depart="25" />
<vehicle id="Bus_70" type="MotorCycle" route="route_6" depart="26" />
<vehicle id="MotorCycle_71" type="MotorCycle" route="route_11" depart="26" />
<vehicle id="Auto_72" type="MotorCycle" route="route_20" depart="27" />
<vehicle id="Auto_73" type="Car" route="route_23" depart="27" />
<vehicle id="Auto_74" type="Auto" route="route_1" depart="28" />
<vehicle id="Auto_75" type="MotorCycle" route="route_1" depart="28" />
<vehicle id="Auto_76" type="Car" route="route_1" depart="28" />
<vehicle id="Car_77" type="MotorCycle" route="route_4" depart="28" />
<vehicle id="Car_78" type="MotorCycle" route="route_12" depart="28" />
<vehicle id="MotorCycle_79" type="MotorCycle" route="route_21" depart="28" />
<vehicle id="Bus_80" type="MotorCycle" route="route_19" depart="29" />
<vehicle id="Bus_81" type="Car" route="route_19" depart="29" />
<vehicle id="Auto_82" type="MotorCycle" route="route_22" depart="30" />
<vehicle id="Auto_83" type="MotorCycle" route="route_23" depart="30" />
<vehicle id="Bus_84" type="Car" route="route_24" depart="30" />
<vehicle id="Auto_85" type="Car" route="route_20" depart="31" />
<vehicle id="Bus_86" type="MotorCycle" route="route_22" depart="31" />
<vehicle id="MotorCycle_87" type="MotorCycle" route="route_2" depart="32" />
<vehicle id="Bus_88" type="MotorCycle" route="route_21" depart="32" />
<vehicle id="Car_89" type="MotorCycle" route="route_23" depart="32" />
<vehicle id="Bus_90" type="MotorCycle" route="route_21" depart="33" />
<vehicle id="MotorCycle_91" type="MotorCycle" route="route_19" depart="34" />
<vehicle id="MotorCycle_92" type="Car" route="route_19" depart="34" />
<vehicle id="Car_93" type="MotorCycle" route="route_21" depart="34" />
<vehicle id="Car_94" type="MotorCycle" route="route_20" depart="35" />
<vehicle id="MotorCycle_95" type="MotorCycle" route="route_23" depart="35" />
<vehicle id="Bus_96" type="Car" route="route_24" depart="36" />
<vehicle id="Bus_97" type="Auto" route="route_22" depart="37" />
<vehicle id="Bus_98" type="MotorCycle" route="route_22" depart="37" />
<vehicle id="Bus_99" type="Car" route="route_22" depart="37" />
<vehicle id="Car_100" type="MotorCycle" route="route_4" depart="38" />
<vehicle id="MotorCycle_101" type="MotorCycle" route="route_11" depart="38" />
<vehicle id="MotorCycle_102" type="Car" route="route_11" depart="38" />
<vehicle id="Bus_103" type="MotorCycle" route="route_22" depart="38" />
<vehicle id="MotorCycle_104" type="MotorCycle" route="route_23" depart="38" />
<vehicle id="Auto_105" type="MotorCycle" route="route_9" depart="39" />
<vehicle id="Auto_106" type="MotorCycle" route="route_12" depart="39" />
<vehicle id="Car_107" type="MotorCycle" route="route_20" depart="39" />
<vehicle id="Car_108" type="Car" route="route_20" depart="39" />
<vehicle id="Car_109" type="MotorCycle" route="route_21" depart="39" />
<vehicle id="MotorCycle_110" type="MotorCycle" route="route_22" depart="39" />
<vehicle id="MotorCycle_111" type="MotorCycle" route="route_24" depart="39" />
<vehicle id="Bus_112" type="MotorCycle" route="route_10" depart="40" />
<vehicle id="Auto_113" type="MotorCycle" route="route_11" depart="40" />
<vehicle id="MotorCycle_114" type="MotorCycle" route="route_22" depart="40" />
<vehicle id="Auto_115" type="MotorCycle" route="route_21" depart="41" />
<vehicle id="MotorCycle_116" type="MotorCycle" route="route_24" depart="42" />
<vehicle id="MotorCycle_117" type="MotorCycle" route="route_12" depart="43" />
<vehicle id="MotorCycle_118" type="Car" route="route_20" depart="43" />
<vehicle id="Bus_119" type="MotorCycle" route="route_21" depart="43" />
<vehicle id="MotorCycle_120" type="MotorCycle" route="route_22" depart="43" />
<vehicle id="Bus_121" type="MotorCycle" route="route_19" depart="44" />
<vehicle id="Auto_122" type="MotorCycle" route="route_21" depart="44" />
<vehicle id="Auto_123" type="MotorCycle" route="route_11" depart="45" />
<vehicle id="Auto_124" type="Car" route="route_11" depart="45" />
<vehicle id="Car_125" type="MotorCycle" route="route_19" depart="46" />
<vehicle id="MotorCycle_126" type="MotorCycle" route="route_21" depart="47" />
<vehicle id="MotorCycle_127" type="MotorCycle" route="route_22" depart="47" />
<vehicle id="Auto_128" type="Auto" route="route_11" depart="48" />
<vehicle id="Auto_129" type="MotorCycle" route="route_11" depart="48" />
<vehicle id="Auto_130" type="Auto" route="route_21" depart="48" />
<vehicle id="MotorCycle_131" type="Auto" route="route_22" depart="48" />
<vehicle id="MotorCycle_132" type="MotorCycle" route="route_22" depart="48" />
<vehicle id="MotorCycle_133" type="Car" route="route_22" depart="48" />
<vehicle id="Car_134" type="MotorCycle" route="route_24" depart="48" />
<vehicle id="MotorCycle_135" type="MotorCycle" route="route_22" depart="49" />
<vehicle id="MotorCycle_136" type="MotorCycle" route="route_21" depart="50" />
<vehicle id="Auto_137" type="MotorCycle" route="route_22" depart="50" />
<vehicle id="MotorCycle_138" type="MotorCycle" route="route_9" depart="51" />
<vehicle id="MotorCycle_139" type="Car" route="route_9" depart="51" />
<vehicle id="Car_140" type="MotorCycle" route="route_22" depart="51" />
<vehicle id="Car_141" type="Car" route="route_22" depart="51" />
<vehicle id="Bus_142" type="MotorCycle" route="route_8" depart="52" />
<vehicle id="Bus_143" type="Auto" route="route_21" depart="52" />
<vehicle id="Bus_144" type="MotorCycle" route="route_21" depart="52" />
<vehicle id="Bus_145" type="MotorCycle" route="route_22" depart="52" />
<vehicle id="MotorCycle_146" type="MotorCycle" route="route_23" depart="52" />
<vehicle id="Car_147" type="Car" route="route_21" depart="53" />
<vehicle id="Bus_148" type="MotorCycle" route="route_22" depart="53" />
<vehicle id="Bus_149" type="Car" route="route_22" depart="53" />
<vehicle id="Auto_150" type="MotorCycle" route="route_23" depart="53" />
<vehicle id="MotorCycle_151" type="MotorCycle" route="route_22" depart="54" />
<vehicle id="MotorCycle_152" type="Car" route="route_22" depart="54" />
<vehicle id="Car_153" type="MotorCycle" route="route_23" depart="54" />
<vehicle id="Auto_154" type="MotorCycle" route="route_15" depart="55" />
<vehicle id="Auto_155" type="Car" route="route_15" depart="55" />
<vehicle id="Car_156" type="Bus" route="route_21" depart="55" />
<vehicle id="Car_157" type="MotorCycle" route="route_21" depart="55" />
<vehicle id="Car_158" type="Car" route="route_21" depart="55" />
<vehicle id="Car_159" type="MotorCycle" route="route_24" depart="55" />
<vehicle id="Car_160" type="Car" route="route_24" depart="55" />
<vehicle id="Bus_161" type="MotorCycle" route="route_5" depart="57" />
<vehicle id="Auto_162" type="MotorCycle" route="route_8" depart="57" />
<vehicle id="Car_163" type="MotorCycle" route="route_22" depart="57" />
<vehicle id="MotorCycle_164" type="MotorCycle" route="route_1" depart="58" />
<vehicle id="Bus_165" type="MotorCycle" route="route_20" depart="58" />
<vehicle id="MotorCycle_166" type="MotorCycle" route="route_22" depart="59" />
<vehicle id="Car_167" type="MotorCycle" route="route_24" depart="59" />
<vehicle id="Car_168" type="Car" route="route_11" depart="61" />
<vehicle id="Bus_169" type="Car" route="route_22" depart="61" />
<vehicle id="Car_170" type="MotorCycle" route="route_19" depart="62" />
<vehicle id="Bus_171" type="MotorCycle" route="route_21" depart="62" />
<vehicle id="Auto_172" type="Car" route="route_22" depart="62" />
<vehicle id="Auto_173" type="MotorCycle" route="route_23" depart="62" />
<vehicle id="Car_174" type="MotorCycle" route="route_21" depart="63" />
<vehicle id="Auto_175" type="MotorCycle" route="route_11" depart="64" />
<vehicle id="Auto_176" type="Car" route="route_11" depart="64" />
<vehicle id="Car_177" type="MotorCycle" route="route_22" depart="64" />
<vehicle id="MotorCycle_178" type="MotorCycle" route="route_12" depart="65" />
<vehicle id="Car_179" type="Car" route="route_19" depart="65" />
<vehicle id="MotorCycle_180" type="MotorCycle" route="route_21" depart="65" />
<vehicle id="Bus_181" type="MotorCycle" route="route_6" depart="66" />
<vehicle id="Bus_182" type="MotorCycle" route="route_20" depart="66" />
<vehicle id="Car_183" type="Bus" route="route_21" depart="66" />
<vehicle id="Car_184" type="MotorCycle" route="route_21" depart="66" />
<vehicle id="MotorCycle_185" type="MotorCycle" route="route_22" depart="66" />
<vehicle id="MotorCycle_186" type="MotorCycle" route="route_23" depart="66" />
<vehicle id="MotorCycle_187" type="MotorCycle" route="route_9" depart="67" />
<vehicle id="MotorCycle_188" type="Car" route="route_9" depart="67" />
<vehicle id="Auto_189" type="MotorCycle" route="route_19" depart="67" />
<vehicle id="Auto_190" type="Car" route="route_19" depart="67" />
<vehicle id="Auto_191" type="MotorCycle" route="route_21" depart="67" />
<vehicle id="MotorCycle_192" type="MotorCycle" route="route_24" depart="67" />
<vehicle id="Bus_193" type="Bus" route="route_23" depart="68" />
<vehicle id="Bus_194" type="MotorCycle" route="route_22" depart="69" />
<vehicle id="Bus_195" type="Car" route="route_22" depart="69" />
<vehicle id="Car_196" type="Auto" route="route_21" depart="70" />
<vehicle id="Car_197" type="Car" route="route_21" depart="70" />
<vehicle id="Bus_198" type="MotorCycle" route="route_22" depart="70" />
<vehicle id="Bus_199" type="MotorCycle" route="route_23" depart="70" />
<vehicle id="Bus_200" type="Car" route="route_23" depart="70" />
<vehicle id="Car_201" type="Bus" route="route_21" depart="71" />
<vehicle id="Car_202" type="MotorCycle" route="route_21" depart="71" />
<vehicle id="MotorCycle_203" type="MotorCycle" route="route_8" depart="72" />
<vehicle id="Auto_204" type="MotorCycle" route="route_20" depart="72" />
<vehicle id="Bus_205" type="MotorCycle" route="route_22" depart="72" />
<vehicle id="Auto_206" type="MotorCycle" route="route_23" depart="72" />
<vehicle id="MotorCycle_207" type="MotorCycle" route="route_23" depart="73" />
<vehicle id="MotorCycle_208" type="MotorCycle" route="route_21" depart="74" />
<vehicle id="Car_209" type="MotorCycle" route="route_22" depart="74" />
<vehicle id="Car_210" type="Auto" route="route_24" depart="74" />
<vehicle id="Car_211" type="MotorCycle" route="route_24" depart="74" />
<vehicle id="Auto_212" type="Car" route="route_22" depart="75" />
<vehicle id="Car_213" type="Bus" route="route_18" depart="76" />
<vehicle id="Car_214" type="MotorCycle" route="route_18" depart="76" />
<vehicle id="Car_215" type="Car" route="route_18" depart="76" />
<vehicle id="Bus_216" type="MotorCycle" route="route_22" depart="76" />
<vehicle id="Bus_217" type="Car" route="route_22" depart="76" />
<vehicle id="MotorCycle_218" type="MotorCycle" route="route_19" depart="77" />
<vehicle id="MotorCycle_219" type="Car" route="route_19" depart="77" />
<vehicle id="Bus_220" type="MotorCycle" route="route_19" depart="78" />
<vehicle id="Bus_221" type="Car" route="route_19" depart="78" />
<vehicle id="Auto_222" type="MotorCycle" route="route_21" depart="78" />
<vehicle id="Auto_223" type="MotorCycle" route="route_4" depart="79" />
<vehicle id="Bus_224" type="Car" route="route_22" depart="79" />
<vehicle id="Car_225" type="MotorCycle" route="route_19" depart="80" />
<vehicle id="Car_226" type="Car" route="route_19" depart="80" />
<vehicle id="Car_227" type="MotorCycle" route="route_23" depart="80" />
<vehicle id="Bus_228" type="MotorCycle" route="route_23" depart="81" />
<vehicle id="MotorCycle_229" type="MotorCycle" route="route_20" depart="82" />
<vehicle id="MotorCycle_230" type="Auto" route="route_21" depart="82" />
<vehicle id="MotorCycle_231" type="MotorCycle" route="route_21" depart="82" />
<vehicle id="MotorCycle_232" type="MotorCycle" route="route_22" depart="82" />
<vehicle id="Auto_233" type="MotorCycle" route="route_24" depart="82" />
<vehicle id="Car_234" type="MotorCycle" route="route_21" depart="83" />
<vehicle id="Car_235" type="Car" route="route_21" depart="83" />
<vehicle id="Car_236" type="MotorCycle" route="route_22" depart="83" />
<vehicle id="MotorCycle_237" type="MotorCycle" route="route_23" depart="83" />
<vehicle id="Auto_238" type="MotorCycle" route="route_24" depart="83" />
<vehicle id="MotorCycle_239" type="MotorCycle" route="route_23" depart="84" />
<vehicle id="MotorCycle_240" type="MotorCycle" route="route_21" depart="86" />
<vehicle id="MotorCycle_241" type="Car" route="route_21" depart="86" />
<vehicle id="Bus_242" type="Bus" route="route_19" depart="87" />
<vehicle id="Bus_243" type="Car" route="route_19" depart="87" />
<vehicle id="Bus_244" type="MotorCycle" route="route_21" depart="87" />
<vehicle id="Bus_245" type="MotorCycle" route="route_22" depart="87" />
<vehicle id="Bus_246" type="Car" route="route_22" depart="87" />
<vehicle id="Auto_247" type="Bus" route="route_23" depart="87" />
<vehicle id="Auto_248" type="Auto" route="route_23" depart="87" />
<vehicle id="Auto_249" type="MotorCycle" route="route_23" depart="87" />
<vehicle id="Auto_250" type="Auto" route="route_20" depart="88" />
<vehicle id="Auto_251" type="MotorCycle" route="route_20" depart="88" />
<vehicle id="Auto_252" type="Car" route="route_20" depart="88" />
<vehicle id="Bus_253" type="Auto" route="route_3" depart="89" />
<vehicle id="Bus_254" type="MotorCycle" route="route_3" depart="89" />
<vehicle id="Bus_255" type="MotorCycle" route="route_19" depart="89" />
<vehicle id="Car_256" type="Auto" route="route_22" depart="89" />
<vehicle id="Car_257" type="MotorCycle" route="route_22" depart="89" />
<vehicle id="Bus_258" type="Bus" route="route_24" depart="89" />
<vehicle id="Bus_259" type="MotorCycle" route="route_24" depart="89" />
<vehicle id="Auto_260" type="MotorCycle" route="route_20" depart="90" />
<vehicle id="Car_261" type="MotorCycle" route="route_20" depart="91" />
<vehicle id="Auto_262" type="MotorCycle" route="route_21" depart="91" />
<vehicle id="Auto_263" type="MotorCycle" route="route_23" depart="91" />
<vehicle id="Auto_264" type="Car" route="route_23" depart="91" />
<vehicle id="Auto_265" type="MotorCycle" route="route_1" depart="92" />
<vehicle id="Auto_266" type="Car" route="route_1" depart="92" />
<vehicle id="Car_267" type="MotorCycle" route="route_18" depart="92" />
<vehicle id="Car_268" type="Car" route="route_18" depart="92" />
<vehicle id="Auto_269" type="MotorCycle" route="route_21" depart="92" />
<vehicle id="Car_270" type="MotorCycle" route="route_24" depart="92" />
<vehicle id="Car_271" type="Car" route="route_24" depart="92" />
<vehicle id="Auto_272" type="MotorCycle" route="route_8" depart="93" />
<vehicle id="Car_273" type="MotorCycle" route="route_21" depart="93" />
<vehicle id="Bus_274" type="MotorCycle" route="route_22" depart="93" />
<vehicle id="Bus_275" type="Auto" route="route_22" depart="95" />
<vehicle id="Bus_276" type="MotorCycle" route="route_22" depart="95" />
<vehicle id="Auto_277" type="MotorCycle" route="route_23" depart="95" />
<vehicle id="Auto_278" type="Car" route="route_23" depart="95" />
<vehicle id="Car_279" type="MotorCycle" route="route_2" depart="96" />
<vehicle id="Auto_280" type="MotorCycle" route="route_23" depart="96" />
<vehicle id="Bus_281" type="MotorCycle" route="route_24" depart="96" />
<vehicle id="Bus_282" type="Car" route="route_24" depart="96" />
<vehicle id="Car_283" type="MotorCycle" route="route_2" depart="97" />
<vehicle id="MotorCycle_284" type="MotorCycle" route="route_3" depart="97" />
<vehicle id="MotorCycle_285" type="MotorCycle" route="route_22" depart="97" />
<vehicle id="MotorCycle_286" type="MotorCycle" route="route_6" depart="98" />
<vehicle id="Car_287" type="MotorCycle" route="route_20" depart="98" />
<vehicle id="Car_288" type="Car" route="route_20" depart="98" />
<vehicle id="MotorCycle_289" type="MotorCycle" route="route_21" depart="98" />
<vehicle id="Auto_290" type="MotorCycle" route="route_22" depart="98" />
<vehicle id="Car_291" type="MotorCycle" route="route_23" depart="98" />
<vehicle id="Bus_292" type="MotorCycle" route="route_1" depart="99" />
<vehicle id="Auto_293" type="MotorCycle" route="route_7" depart="99" />
<vehicle id="Bus_294" type="MotorCycle" route="route_19" depart="99" />
<vehicle id="Bus_295" type="Car" route="route_19" depart="99" />
<vehicle id="MotorCycle_296" type="Car" route="route_20" depart="99" />
<vehicle id="MotorCycle_297" type="MotorCycle" route="route_22" depart="100" />
<vehicle id="MotorCycle_298" type="MotorCycle" route="route_24" depart="100" />
<vehicle id="Car_299" type="MotorCycle" route="route_23" depart="101" />
<vehicle id="Auto_300" type="MotorCycle" route="route_3" depart="102" />
<vehicle id="Auto_301" type="Car" route="route_3" depart="102" />
<vehicle id="Car_302" type="Auto" route="route_21" depart="102" />
<vehicle id="Car_303" type="MotorCycle" route="route_21" depart="102" />
<vehicle id="Car_304" type="Car" route="route_21" depart="102" />
<vehicle id="MotorCycle_305" type="MotorCycle" route="route_24" depart="102" />
<vehicle id="Auto_306" type="MotorCycle" route="route_21" depart="103" />
<vehicle id="Auto_307" type="MotorCycle" route="route_22" depart="103" />
<vehicle id="Auto_308" type="Car" route="route_22" depart="103" />
<vehicle id="Bus_309" type="MotorCycle" route="route_24" depart="103" />
<vehicle id="MotorCycle_310" type="MotorCycle" route="route_4" depart="104" />
<vehicle id="Bus_311" type="MotorCycle" route="route_19" depart="104" />
<vehicle id="Bus_312" type="MotorCycle" route="route_20" depart="104" />
<vehicle id="Car_313" type="MotorCycle" route="route_22" depart="104" />
<vehicle id="Car_314" type="MotorCycle" route="route_23" depart="104" />
<vehicle id="Bus_315" type="MotorCycle" route="route_10" depart="105" />
<vehicle id="Car_316" type="Auto" route="route_20" depart="106" />
<vehicle id="Car_317" type="MotorCycle" route="route_20" depart="106" />
<vehicle id="Car_318" type="Car" route="route_20" depart="106" />
<vehicle id="Bus_319" type="MotorCycle" route="route_22" depart="106" />
<vehicle id="Auto_320" type="MotorCycle" route="route_12" depart="107" />
<vehicle id="Bus_321" type="MotorCycle" route="route_19" depart="107" />
<vehicle id="MotorCycle_322" type="MotorCycle" route="route_22" depart="107" />
<vehicle id="Auto_323" type="MotorCycle" route="route_23" depart="107" />
<vehicle id="MotorCycle_324" type="MotorCycle" route="route_20" depart="108" />
<vehicle id="MotorCycle_325" type="Car" route="route_21" depart="108" />
<vehicle id="Auto_326" type="MotorCycle" route="route_23" depart="109" />
<vehicle id="MotorCycle_327" type="MotorCycle" route="route_4" depart="110" />
<vehicle id="Auto_328" type="MotorCycle" route="route_8" depart="110" />
<vehicle id="MotorCycle_329" type="MotorCycle" route="route_21" depart="111" />
<vehicle id="MotorCycle_330" type="MotorCycle" route="route_22" depart="111" />
<vehicle id="Auto_331" type="MotorCycle" route="route_19" depart="112" />
<vehicle id="Car_332" type="MotorCycle" route="route_21" depart="112" />
<vehicle id="Auto_333" type="Auto" route="route_22" depart="112" />
<vehicle id="Auto_334" type="MotorCycle" route="route_22" depart="112" />
<vehicle id="Bus_335" type="MotorCycle" route="route_20" depart="113" />
<vehicle id="Car_336" type="MotorCycle" route="route_23" depart="113" />
<vehicle id="Auto_337" type="MotorCycle" route="route_13" depart="114" />
<vehicle id="Car_338" type="MotorCycle" route="route_20" depart="114" />
<vehicle id="MotorCycle_339" type="MotorCycle" route="route_23" depart="114" />
<vehicle id="Bus_340" type="Auto" route="route_1" depart="115" />
<vehicle id="Bus_341" type="MotorCycle" route="route_4" depart="115" />
<vehicle id="Car_342" type="MotorCycle" route="route_12" depart="115" />
<vehicle id="Car_343" type="MotorCycle" route="route_21" depart="115" />
<vehicle id="MotorCycle_344" type="MotorCycle" route="route_22" depart="115" />
<vehicle id="MotorCycle_345" type="MotorCycle" route="route_4" depart="116" />
<vehicle id="Auto_346" type="MotorCycle" route="route_22" depart="116" />
<vehicle id="Car_347" type="MotorCycle" route="route_23" depart="116" />
<vehicle id="Car_348" type="MotorCycle" route="route_11" depart="117" />
<vehicle id="MotorCycle_349" type="MotorCycle" route="route_20" depart="117" />
<vehicle id="Auto_350" type="Auto" route="route_21" depart="117" />
<vehicle id="Auto_351" type="MotorCycle" route="route_21" depart="117" />
<vehicle id="Car_352" type="MotorCycle" route="route_22" depart="117" />
<vehicle id="Auto_353" type="MotorCycle" route="route_19" depart="118" />
<vehicle id="MotorCycle_354" type="Car" route="route_19" depart="119" />
<vehicle id="Bus_355" type="MotorCycle" route="route_4" depart="121" />
<vehicle id="Auto_356" type="MotorCycle" route="route_21" depart="121" />
<vehicle id="Bus_357" type="MotorCycle" route="route_20" depart="122" />
<vehicle id="MotorCycle_358" type="MotorCycle" route="route_21" depart="122" />
<vehicle id="MotorCycle_359" type="Car" route="route_21" depart="122" />
<vehicle id="Auto_360" type="MotorCycle" route="route_22" depart="122" />
<vehicle id="Bus_361" type="MotorCycle" route="route_24" depart="122" />
<vehicle id="Bus_362" type="MotorCycle" route="route_4" depart="123" />
<vehicle id="MotorCycle_363" type="MotorCycle" route="route_21" depart="123" />
<vehicle id="MotorCycle_364" type="MotorCycle" route="route_22" depart="123" />
<vehicle id="Auto_365" type="MotorCycle" route="route_22" depart="124" />
<vehicle id="Auto_366" type="Car" route="route_22" depart="124" />
<vehicle id="Bus_367" type="MotorCycle" route="route_4" depart="125" />
<vehicle id="Bus_368" type="Car" route="route_4" depart="125" />
<vehicle id="Bus_369" type="MotorCycle" route="route_22" depart="125" />
<vehicle id="Bus_370" type="MotorCycle" route="route_21" depart="126" />
<vehicle id="Auto_371" type="MotorCycle" route="route_22" depart="127" />
<vehicle id="Auto_372" type="MotorCycle" route="route_23" depart="127" />
<vehicle id="MotorCycle_373" type="MotorCycle" route="route_19" depart="128" />
<vehicle id="Auto_374" type="Auto" route="route_22" depart="128" />
<vehicle id="Auto_375" type="Car" route="route_22" depart="128" />