<routes>
<vType id="Bus" accel="0.6" decel="3.5" sigma="0.5" length="10.1" minGap="1.0" maxSpeed="16.67" carFollowModel="Wiedemann" guiShape="bus" width="2.45" latAlignment="left" laneChangeModel="SL2015" lcStrategic="0.5" lcCooperative="0.0"/>
<vType id="Auto" accel="0.7" decel="4.5" sigma="0.5" length="2.6" minGap="0.3" maxSpeed="16" carFollowModel="Wiedemann" guiShape="passenger/sedan" width="1.25" latAlignment="left" laneChangeModel="SL2015" lcStrategic="0.5" lcCooperative="0.0" />
<vType id="MotorCycle" accel="0.9" decel="3.5" sigma="0.5" length="1.85" minGap="0.15"  carFollowModel="Wiedemann" maxSpeed="17" guiShape="motorcycle" width="0.7" latAlignment="left" laneChangeModel="SL2015" lcStrategic="0.5" lcCooperative="0.0"/>
<vType id="Car" accel="0.8" decel="4.5" sigma="0.5" length="3.6" minGap="0.5" maxSpeed="40" carFollowModel="Wiedemann" guiShape="passenger" width="1.5" latAlignment="left" laneChangeModel="SL2015" lcStrategic="0.5" lcCooperative="0.0"/>
<vType id="emergency" accel="2.8" decel="5.5" sigma="0.5" length="3.6" minGap="0.5" maxSpeed="120.6" carFollowModel="Wiedemann" guiShape="emergency" width="1.5" latAlignment="left" laneChangeModel="SL2015" lcStrategic="0.5" lcCooperative="0.0" vClass="emergency" speedFactor="1.9" jmDriveAfterRedTime="300" jmDriveAfterRedSpeed="5.56">
<param key="has.bluelight.device" value="true"/>
<param key="has.fcd.device" value="true"/> 
</vType>
<route id="route_0" edges="1i 52i gneE0 gneE2" />
<route id="route_1" edges="-gneE2 -gneE0 52o 2i 1o" />
        <route id="route_2" edges="4i 3o" />
        <route id="route_3" edges="3i 4o" />
        <route id="route_4" edges="-gneE1 gneE3" /> 
        <route id="route_5" edges="4i 1o" />
        <route id="route_6" edges="4i 2o 52i gneE0 gneE1" />
        <route id="route_7" edges="2i 4o" />
        <route id="route_8" edges="2i 3o" />
        <route id="route_9" edges="-gneE1 gneE3" />
        <route id="route_10" edges="3i 2o 52i gneE0 gneE3" />
        <route id="route_11" edges="3i 1o" />
        <route id="route_12" edges="-gneE1 -gneE0 52o 2i 4o" />
        <route id="route_13" edges="-gneE1 gneE2" />
        <route id="route_14" edges="-gneE2 gneE1" />
        <route id="route_15" edges="-gneE2 gneE3" />
        <route id="route_16" edges="-gneE3 -gneE0 52o 2i 3o" />
        <route id="route_17" edges="-gneE3 gneE2" />
        <route id="route_18" edges="gneE0 gneE3" />
        <route id="route_19" edges="gneE0 gneE1" />
        <route id="route_20" edges="1i 2o 52i gneE0 gneE2 -gneE4 gneE5" />
        <route id="route_21" edges="-gneE5 gneE4 -gneE2 -gneE0 52o 2i 1o" />
        <route id="route_22" edges="-gneE5 gneE4 -gneE2 -gneE0 52o 2i 3o" />
        <route id="route_23" edges="1i 2o 52i gneE0 gneE2 -gneE4 gneE7" />

	<route id="route_24" edges="gneE0"/>
<vehicle id="emergency_0" type="emergency" route="route_3" depart="0" />
<vehicle id="Bus_0" type="Bus" route="route_3" depart="0" />
<vehicle id="Car_0" type="Car" route="route_19" depart="0" />
<vehicle id="Auto_1" type="Car" route="route_24" depart="1" />
<vehicle id="Bus_2" type="MotorCycle" route="route_1" depart="2" />
<vehicle id="Bus_3" type="Car" route="route_1" depart="2" />
<vehicle id="Bus_4" type="MotorCycle" route="route_13" depart="2" />
<vehicle id="Bus_5" type="Car" route="route_13" depart="2" />
<vehicle id="MotorCycle_6" type="MotorCycle" route="route_18" depart="2" />
<vehicle id="MotorCycle_7" type="MotorCycle" route="route_21" depart="2" />
<vehicle id="Car_8" type="Auto" route="route_22" depart="2" />
<vehicle id="Car_9" type="MotorCycle" route="route_22" depart="2" />
<vehicle id="MotorCycle_10" type="MotorCycle" route="route_23" depart="2" />
<vehicle id="MotorCycle_11" type="Car" route="route_23" depart="2" />
<vehicle id="Auto_12" type="MotorCycle" route="route_20" depart="3" />
<vehicle id="Bus_13" type="MotorCycle" route="route_22" depart="3" />
<vehicle id="Auto_14" type="MotorCycle" route="route_21" depart="4" />
<vehicle id="Car_15" type="Bus" route="route_8" depart="5" />
<vehicle id="Car_16" type="MotorCycle" route="route_8" depart="5" />
<vehicle id="Car_17" type="MotorCycle" route="route_19" depart="5" />
<vehicle id="Auto_18" type="MotorCycle" route="route_21" depart="5" />
<vehicle id="MotorCycle_19" type="MotorCycle" route="route_22" depart="5" />
<vehicle id="MotorCycle_20" type="MotorCycle" route="route_8" depart="6" />
<vehicle id="MotorCycle_21" type="MotorCycle" route="route_22" depart="6" />
<vehicle id="Auto_22" type="MotorCycle" route="route_20" depart="7" />
<vehicle id="Car_23" type="MotorCycle" route="route_21" depart="7" />
<vehicle id="Car_24" type="MotorCycle" route="route_24" depart="7" />
<vehicle id="MotorCycle_25" type="MotorCycle" route="route_17" depart="8" />
<vehicle id="Bus_26" type="MotorCycle" route="route_21" depart="8" />
<vehicle id="Auto_27" type="MotorCycle" route="route_24" depart="8" />
<vehicle id="Car_28" type="MotorCycle" route="route_4" depart="9" />
<vehicle id="MotorCycle_29" type="MotorCycle" route="route_22" depart="9" />
<vehicle id="Auto_30" type="Car" route="route_15" depart="10" />
<vehicle id="Auto_31" type="MotorCycle" route="route_20" depart="10" />
<vehicle id="Car_32" type="MotorCycle" route="route_21" depart="10" />
<vehicle id="Car_33" type="Car" route="route_21" depart="10" />
<vehicle id="MotorCycle_34" type="MotorCycle" route="route_22" depart="10" />
<vehicle id="Bus_35" type="MotorCycle" route="route_5" depart="11" />
<vehicle id="Car_36" type="MotorCycle" route="route_12" depart="11" />
<vehicle id="Car_37" type="Car" route="route_12" depart="11" />
<vehicle id="Car_38" type="MotorCycle" route="route_20" depart="12" />
<vehicle id="MotorCycle_39" type="MotorCycle" route="route_21" depart="12" />
<vehicle id="Car_40" type="MotorCycle" route="route_8" depart="13" />
<vehicle id="MotorCycle_41" type="MotorCycle" route="route_21" depart="13" />
<vehicle id="Auto_42" type="MotorCycle" route="route_23" depart="14" />
<vehicle id="MotorCycle_43" type="MotorCycle" route="route_19" depart="15" />
<vehicle id="MotorCycle_44" type="Car" route="route_19" depart="15" />
<vehicle id="Car_45" type="MotorCycle" route="route_24" depart="15" />
<vehicle id="Car_46" type="MotorCycle" route="route_20" depart="16" />
<vehicle id="Bus_47" type="MotorCycle" route="route_21" depart="16" />
<vehicle id="Car_48" type="MotorCycle" route="route_22" depart="16" />
<vehicle id="Car_49" type="MotorCycle" route="route_23" depart="16" />
<vehicle id="Car_50" type="MotorCycle" route="route_24" depart="16" />
<vehicle id="Car_51" type="Car" route="route_24" depart="16" />
<vehicle id="Car_52" type="MotorCycle" route="route_19" depart="17" />
<vehicle id="Car_53" type="Car" route="route_19" depart="17" />
<vehicle id="MotorCycle_54" type="MotorCycle" route="route_21" depart="17" />
<vehicle id="Car_55" type="MotorCycle" route="route_24" depart="17" />
<vehicle id="Auto_56" type="MotorCycle" route="route_6" depart="18" />
<vehicle id="Bus_57" type="MotorCycle" route="route_9" depart="18" />
<vehicle id="Car_58" type="MotorCycle" route="route_11" depart="18" />
<vehicle id="Car_59" type="Car" route="route_11" depart="18" />
<vehicle id="Auto_60" type="MotorCycle" route="route_22" depart="18" />
<vehicle id="Bus_61" type="MotorCycle" route="route_23" depart="18" />
<vehicle id="Bus_62" type="MotorCycle" route="route_24" depart="18" />
<vehicle id="Auto_63" type="MotorCycle" route="route_5" depart="19" />
<vehicle id="Auto_64" type="Car" route="route_5" depart="19" />
<vehicle id="Car_65" type="MotorCycle" route="route_19" depart="20" />
<vehicle id="MotorCycle_66" type="MotorCycle" route="route_2" depart="21" />
<vehicle id="MotorCycle_67" type="Car" route="route_2" depart="21" />
<vehicle id="Car_68" type="Auto" route="route_4" depart="21" />
<vehicle id="Car_69" type="MotorCycle" route="route_4" depart="21" />
<vehicle id="Auto_70" type="MotorCycle" route="route_9" depart="21" />
<vehicle id="MotorCycle_71" type="MotorCycle" route="route_21" depart="21" />
<vehicle id="MotorCycle_72" type="MotorCycle" route="route_14" depart="22" />
<vehicle id="Auto_73" type="MotorCycle" route="route_24" depart="22" />
<vehicle id="MotorCycle_74" type="MotorCycle" route="route_11" depart="23" />
<vehicle id="Auto_75" type="MotorCycle" route="route_22" depart="23" />
<vehicle id="Bus_76" type="MotorCycle" route="route_19" depart="24" />
<vehicle id="Bus_77" type="Car" route="route_19" depart="24" />
<vehicle id="Bus_78" type="MotorCycle" route="route_21" depart="24" />
<vehicle id="Bus_79" type="MotorCycle" route="route_24" depart="24" />
<vehicle id="Auto_80" type="MotorCycle" route="route_22" depart="25" />
<vehicle id="Bus_81" type="MotorCycle" route="route_13" depart="26" />
<vehicle id="Bus_82" type="MotorCycle" route="route_20" depart="26" />
<vehicle id="Auto_83" type="MotorCycle" route="route_21" depart="26" />
<vehicle id="Auto_84" type="Car" route="route_21" depart="26" />
<vehicle id="Auto_85" type="MotorCycle" route="route_5" depart="27" />
<vehicle id="Car_86" type="MotorCycle" route="route_21" depart="27" />
<vehicle id="Car_87" type="Car" route="route_21" depart="27" />
<vehicle id="MotorCycle_88" type="Car" route="route_22" depart="27" />
<vehicle id="Car_89" type="MotorCycle" route="route_9" depart="28" />
<vehicle id="Auto_90" type="MotorCycle" route="route_15" depart="28" />
<vehicle id="Car_91" type="MotorCycle" route="route_20" depart="28" />
<vehicle id="Bus_92" type="MotorCycle" route="route_24" depart="28" />
<vehicle id="Bus_93" type="Car" route="route_24" depart="28" />
<vehicle id="MotorCycle_94" type="MotorCycle" route="route_10" depart="29" />
<vehicle id="Car_95" type="Bus" route="route_21" depart="29" />
<vehicle id="Car_96" type="MotorCycle" route="route_21" depart="29" />
<vehicle id="MotorCycle_97" type="MotorCycle" route="route_23" depart="29" />
<vehicle id="Car_98" type="MotorCycle" route="route_24" depart="29" />
<vehicle id="Car_99" type="MotorCycle" route="route_21" depart="30" />
<vehicle id="MotorCycle_100" type="MotorCycle" route="route_22" depart="30" />
<vehicle id="MotorCycle_101" type="MotorCycle" route="route_23" depart="30" />
<vehicle id="MotorCycle_102" type="MotorCycle" route="route_24" depart="30" />
<vehicle id="Auto_103" type="MotorCycle" route="route_6" depart="31" />
<vehicle id="Auto_104" type="Auto" route="route_19" depart="31" />
<vehicle id="Auto_105" type="MotorCycle" route="route_19" depart="31" />
<vehicle id="Bus_106" type="MotorCycle" route="route_20" depart="31" />
<vehicle id="MotorCycle_107" type="Car" route="route_22" depart="31" />
<vehicle id="Auto_108" type="MotorCycle" route="route_11" depart="32" />
<vehicle id="Auto_109" type="Car" route="route_11" depart="32" />
<vehicle id="MotorCycle_110" type="MotorCycle" route="route_22" depart="32" />
<vehicle id="Bus_111" type="MotorCycle" route="route_23" depart="32" />
<vehicle id="Bus_112" type="Car" route="route_23" depart="32" />
<vehicle id="MotorCycle_113" type="MotorCycle" route="route_3" depart="33" />
<vehicle id="MotorCycle_114" type="MotorCycle" route="route_21" depart="33" />
<vehicle id="MotorCycle_115" type="Car" route="route_21" depart="33" />
<vehicle id="Auto_116" type="MotorCycle" route="route_23" depart="33" />
<vehicle id="Auto_117" type="Car" route="route_23" depart="33" />
<vehicle id="Auto_118" type="MotorCycle" route="route_14" depart="34" />
<vehicle id="Auto_119" type="Car" route="route_14" depart="34" />
<vehicle id="Bus_120" type="MotorCycle" route="route_19" depart="34" />
<vehicle id="Auto_121" type="Car" route="route_21" depart="34" />
<vehicle id="Bus_122" type="MotorCycle" route="route_1" depart="35" />
<vehicle id="Bus_123" type="Car" route="route_1" depart="35" />
<vehicle id="Bus_124" type="MotorCycle" route="route_3" depart="35" />
<vehicle id="Auto_125" type="MotorCycle" route="route_12" depart="35" />
<vehicle id="Bus_126" type="MotorCycle" route="route_19" depart="36" />
<vehicle id="Bus_127" type="MotorCycle" route="route_20" depart="36" />
<vehicle id="Bus_128" type="MotorCycle" route="route_21" depart="36" />
<vehicle id="Bus_129" type="Car" route="route_21" depart="36" />
<vehicle id="Car_130" type="MotorCycle" route="route_3" depart="37" />
<vehicle id="Car_131" type="Car" route="route_3" depart="37" />
<vehicle id="Auto_132" type="MotorCycle" route="route_19" depart="37" />
<vehicle id="Auto_133" type="Car" route="route_19" depart="37" />
<vehicle id="Auto_134" type="MotorCycle" route="route_22" depart="38" />
<vehicle id="Auto_135" type="Car" route="route_22" depart="38" />
<vehicle id="Bus_136" type="MotorCycle" route="route_23" depart="38" />
<vehicle id="Auto_137" type="MotorCycle" route="route_8" depart="39" />
<vehicle id="Car_138" type="MotorCycle" route="route_11" depart="39" />
<vehicle id="Auto_139" type="Car" route="route_20" depart="39" />
<vehicle id="Bus_140" type="MotorCycle" route="route_23" depart="40" />
<vehicle id="Auto_141" type="MotorCycle" route="route_24" depart="40" />
<vehicle id="Bus_142" type="MotorCycle" route="route_10" depart="41" />
<vehicle id="Car_143" type="Auto" route="route_23" depart="41" />
<vehicle id="Car_144" type="MotorCycle" route="route_23" depart="41" />
<vehicle id="Auto_145" type="Auto" route="route_24" depart="41" />
<vehicle id="Car_146" type="MotorCycle" route="route_21" depart="42" />
<vehicle id="MotorCycle_147" type="MotorCycle" route="route_22" depart="42" />
<vehicle id="Auto_148" type="Car" route="route_4" depart="43" />
<vehicle id="MotorCycle_149" type="MotorCycle" route="route_11" depart="43" />
<vehicle id="MotorCycle_150" type="Car" route="route_11" depart="43" />
<vehicle id="Auto_151" type="MotorCycle" route="route_21" depart="43" />
<vehicle id="Auto_152" type="Auto" route="route_22" depart="43" />
<vehicle id="Auto_153" type="MotorCycle" route="route_23" depart="43" />
<vehicle id="MotorCycle_154" type="MotorCycle" route="route_20" depart="44" />
<vehicle id="Auto_155" type="MotorCycle" route="route_21" depart="44" />
<vehicle id="Auto_156" type="MotorCycle" route="route_23" depart="44" />
<vehicle id="Bus_157" type="MotorCycle" route="route_22" depart="45" />
<vehicle id="MotorCycle_158" type="MotorCycle" route="route_3" depart="46" />
<vehicle id="MotorCycle_159" type="Car" route="route_3" depart="46" />
<vehicle id="Auto_160" type="MotorCycle" route="route_24" depart="46" />
<vehicle id="Car_161" type="MotorCycle" route="route_21" depart="47" />
<vehicle id="Car_162" type="MotorCycle" route="route_24" depart="47" />
<vehicle id="Car_163" type="Car" route="route_24" depart="47" />
<vehicle id="Car_164" type="MotorCycle" route="route_7" depart="48" />
<vehicle id="Bus_165" type="MotorCycle" route="route_20" depart="49" />
<vehicle id="MotorCycle_166" type="MotorCycle" route="route_9" depart="50" />
<vehicle id="MotorCycle_167" type="Car" route="route_9" depart="50" />
<vehicle id="Auto_168" type="MotorCycle" route="route_22" depart="50" />
<vehicle id="Auto_169" type="Car" route="route_22" depart="50" />
<vehicle id="Car_170" type="MotorCycle" route="route_23" depart="50" />
<vehicle id="Car_171" type="Car" route="route_23" depart="50" />
<vehicle id="Car_172" type="MotorCycle" route="route_12" depart="51" />
<vehicle id="Auto_173" type="MotorCycle" route="route_19" depart="51" />
<vehicle id="Car_174" type="MotorCycle" route="route_20" depart="51" />
<vehicle id="Car_175" type="Car" route="route_21" depart="51" />
<vehicle id="MotorCycle_176" type="MotorCycle" route="route_23" depart="51" />
<vehicle id="MotorCycle_177" type="MotorCycle" route="route_24" depart="51" />
<vehicle id="Auto_178" type="Car" route="route_7" depart="52" />
<vehicle id="Auto_179" type="MotorCycle" route="route_1" depart="53" />
<vehicle id="Bus_180" type="MotorCycle" route="route_4" depart="53" />
<vehicle id="Bus_181" type="MotorCycle" route="route_8" depart="53" />
<vehicle id="Bus_182" type="MotorCycle" route="route_21" depart="53" />
<vehicle id="Car_183" type="MotorCycle" route="route_23" depart="53" />
<vehicle id="Car_184" type="Car" route="route_23" depart="53" />
<vehicle id="Bus_185" type="MotorCycle" route="route_1" depart="55" />
<vehicle id="Auto_186" type="MotorCycle" route="route_19" depart="55" />
<vehicle id="Auto_187" type="Car" route="route_19" depart="55" />
<vehicle id="Bus_188" type="MotorCycle" route="route_21" depart="55" />
<vehicle id="Bus_189" type="Car" route="route_21" depart="55" />
<vehicle id="Auto_190" type="MotorCycle" route="route_22" depart="55" />
<vehicle id="Auto_191" type="Car" route="route_22" depart="55" />
<vehicle id="Car_192" type="MotorCycle" route="route_2" depart="56" />
<vehicle id="Auto_193" type="MotorCycle" route="route_22" depart="56" />
<vehicle id="Bus_194" type="MotorCycle" route="route_19" depart="57" />
<vehicle id="Bus_195" type="MotorCycle" route="route_21" depart="57" />
<vehicle id="Auto_196" type="MotorCycle" route="route_2" depart="58" />
<vehicle id="Car_197" type="MotorCycle" route="route_21" depart="58" />
<vehicle id="Car_198" type="MotorCycle" route="route_22" depart="58" />
<vehicle id="Bus_199" type="MotorCycle" route="route_22" depart="59" />
<vehicle id="MotorCycle_200" type="MotorCycle" route="route_24" depart="59" />
<vehicle id="MotorCycle_201" type="Car" route="route_23" depart="60" />
<vehicle id="Bus_202" type="MotorCycle" route="route_24" depart="60" />
<vehicle id="Auto_203" type="MotorCycle" route="route_10" depart="61" />
<vehicle id="Auto_204" type="MotorCycle" route="route_12" depart="61" />
<vehicle id="Auto_205" type="Car" route="route_12" depart="61" />
<vehicle id="Auto_206" type="MotorCycle" route="route_20" depart="61" />
<vehicle id="Auto_207" type="Car" route="route_20" depart="61" />
<vehicle id="Auto_208" type="MotorCycle" route="route_22" depart="61" />
<vehicle id="Bus_209" type="MotorCycle" route="route_23" depart="61" />
<vehicle id="Bus_210" type="MotorCycle" route="route_24" depart="62" />
<vehicle id="Car_211" type="MotorCycle" route="route_11" depart="63" />
<vehicle id="Car_212" type="MotorCycle" route="route_12" depart="63" />
<vehicle id="Bus_213" type="MotorCycle" route="route_22" depart="63" />
<vehicle id="Auto_214" type="MotorCycle" route="route_21" depart="64" />
<vehicle id="Bus_215" type="MotorCycle" route="route_21" depart="65" />
<vehicle id="Car_216" type="MotorCycle" route="route_23" depart="65" />
<vehicle id="Car_217" type="Car" route="route_23" depart="65" />
<vehicle id="Car_218" type="MotorCycle" route="route_24" depart="65" />
<vehicle id="Car_219" type="Car" route="route_24" depart="65" />
<vehicle id="Car_220" type="Car" route="route_12" depart="66" />
<vehicle id="Bus_221" type="MotorCycle" route="route_22" depart="66" />
<vehicle id="Car_222" type="MotorCycle" route="route_23" depart="67" />
<vehicle id="Car_223" type="Car" route="route_23" depart="67" />
<vehicle id="Car_224" type="MotorCycle" route="route_24" depart="67" />
<vehicle id="Car_225" type="MotorCycle" route="route_8" depart="68" />
<vehicle id="Car_226" type="Car" route="route_8" depart="68" />
<vehicle id="Bus_227" type="MotorCycle" route="route_21" depart="68" />
<vehicle id="MotorCycle_228" type="MotorCycle" route="route_24" depart="68" />
<vehicle id="Bus_229" type="Car" route="route_6" depart="69" />
<vehicle id="Bus_230" type="Auto" route="route_23" depart="69" />
<vehicle id="Bus_231" type="Car" route="route_23" depart="69" />
<vehicle id="Bus_232" type="MotorCycle" route="route_22" depart="71" />
<vehicle id="Bus_233" type="Car" route="route_22" depart="71" />
<vehicle id="Auto_234" type="MotorCycle" route="route_3" depart="72" />
<vehicle id="Bus_235" type="MotorCycle" route="route_7" depart="72" />
<vehicle id="Auto_236" type="MotorCycle" route="route_21" depart="72" />
<vehicle id="MotorCycle_237" type="MotorCycle" route="route_24" depart="72" />
<vehicle id="Auto_238" type="Car" route="route_4" depart="73" />
<vehicle id="Auto_239" type="MotorCycle" route="route_20" depart="73" />
<vehicle id="MotorCycle_240" type="MotorCycle" route="route_22" depart="73" />
<vehicle id="Auto_241" type="MotorCycle" route="route_23" depart="73" />
<vehicle id="Auto_242" type="MotorCycle" route="route_20" depart="74" />
<vehicle id="Car_243" type="Car" route="route_22" depart="74" />
<vehicle id="Car_244" type="Car" route="route_21" depart="75" />
<vehicle id="Auto_245" type="MotorCycle" route="route_24" depart="75" />
<vehicle id="Auto_246" type="Car" route="route_24" depart="75" />
<vehicle id="Car_247" type="MotorCycle" route="route_1" depart="76" />
<vehicle id="Car_248" type="MotorCycle" route="route_21" depart="76" />
<vehicle id="Auto_249" type="MotorCycle" route="route_23" depart="76" />
<vehicle id="MotorCycle_250" type="MotorCycle" route="route_9" depart="77" />
<vehicle id="MotorCycle_251" type="Car" route="route_9" depart="77" />
<vehicle id="Auto_252" type="MotorCycle" route="route_16" depart="77" />
<vehicle id="Bus_253" type="MotorCycle" route="route_23" depart="77" />
<vehicle id="Auto_254" type="MotorCycle" route="route_14" depart="78" />
<vehicle id="MotorCycle_255" type="MotorCycle" route="route_21" depart="78" />
<vehicle id="Car_256" type="MotorCycle" route="route_22" depart="78" />
<vehicle id="Car_257" type="MotorCycle" route="route_22" depart="79" />
<vehicle id="Auto_258" type="Bus" route="route_24" depart="79" />
<vehicle id="Bus_259" type="MotorCycle" route="route_22" depart="80" />
<vehicle id="Bus_260" type="MotorCycle" route="route_22" depart="81" />
<vehicle id="MotorCycle_261" type="MotorCycle" route="route_24" depart="81" />
<vehicle id="Bus_262" type="MotorCycle" route="route_21" depart="82" />
<vehicle id="MotorCycle_263" type="MotorCycle" route="route_22" depart="82" />
<vehicle id="MotorCycle_264" type="MotorCycle" route="route_23" depart="82" />
<vehicle id="Auto_265" type="MotorCycle" route="route_22" depart="83" />
<vehicle id="Auto_266" type="Car" route="route_22" depart="83" />
<vehicle id="Car_267" type="MotorCycle" route="route_8" depart="84" />
<vehicle id="Auto_268" type="Auto" route="route_21" depart="84" />
<vehicle id="Auto_269" type="MotorCycle" route="route_21" depart="84" />
<vehicle id="Auto_270" type="Car" route="route_21" depart="84" />
<vehicle id="Car_271" type="MotorCycle" route="route_22" depart="84" />
<vehicle id="Auto_272" type="MotorCycle" route="route_23" depart="84" />
<vehicle id="Bus_273" type="MotorCycle" route="route_24" depart="84" />
<vehicle id="MotorCycle_274" type="Auto" route="route_1" depart="85" />
<vehicle id="MotorCycle_275" type="MotorCycle" route="route_1" depart="85" />
<vehicle id="Car_276" type="MotorCycle" route="route_5" depart="85" />
<vehicle id="Car_277" type="MotorCycle" route="route_19" depart="85" />
<vehicle id="Auto_278" type="Auto" route="route_21" depart="85" />
<vehicle id="Bus_279" type="MotorCycle" route="route_23" depart="85" />
<vehicle id="Bus_280" type="Car" route="route_23" depart="85" />
<vehicle id="Auto_281" type="MotorCycle" route="route_24" depart="85" />
<vehicle id="Car_282" type="MotorCycle" route="route_14" depart="86" />
<vehicle id="MotorCycle_283" type="MotorCycle" route="route_19" depart="86" />
<vehicle id="Bus_284" type="Auto" route="route_20" depart="86" />
<vehicle id="Bus_285" type="MotorCycle" route="route_20" depart="86" />
<vehicle id="Auto_286" type="MotorCycle" route="route_21" depart="86" />
<vehicle id="Auto_287" type="MotorCycle" route="route_22" depart="87" />
<vehicle id="Bus_288" type="MotorCycle" route="route_19" depart="88" />
<vehicle id="Bus_289" type="MotorCycle" route="route_23" depart="88" />
<vehicle id="Auto_290" type="MotorCycle" route="route_24" depart="88" />
<vehicle id="Bus_291" type="MotorCycle" route="route_2" depart="89" />
<vehicle id="Car_292" type="MotorCycle" route="route_7" depart="90" />
<vehicle id="Bus_293" type="Bus" route="route_21" depart="90" />
<vehicle id="Bus_294" type="MotorCycle" route="route_21" depart="90" />
<vehicle id="Auto_295" type="MotorCycle" route="route_24" depart="90" />
<vehicle id="Bus_296" type="MotorCycle" route="route_5" depart="91" />
<vehicle id="MotorCycle_297" type="MotorCycle" route="route_20" depart="91" />
<vehicle id="MotorCycle_298" type="Car" route="route_20" depart="91" />
<vehicle id="MotorCycle_299" type="MotorCycle" route="route_9" depart="92" />
<vehicle id="Car_300" type="MotorCycle" route="route_2" depart="93" />
<vehicle id="MotorCycle_301" type="MotorCycle" route="route_8" depart="93" />
<vehicle id="MotorCycle_302" type="Car" route="route_8" depart="93" />
<vehicle id="Bus_303" type="MotorCycle" route="route_22" depart="93" />
<vehicle id="Auto_304" type="MotorCycle" route="route_24" depart="93" />
<vehicle id="Bus_305" type="Auto" route="route_19" depart="94" />
<vehicle id="Bus_306" type="MotorCycle" route="route_19" depart="94" />
<vehicle id="Bus_307" type="MotorCycle" route="route_21" depart="94" />
<vehicle id="Bus_308" type="Auto" route="route_19" depart="95" />
<vehicle id="Bus_309" type="MotorCycle" route="route_19" depart="95" />
<vehicle id="Auto_310" type="MotorCycle" route="route_21" depart="95" />
<vehicle id="Auto_311" type="Car" route="route_21" depart="95" />
<vehicle id="MotorCycle_312" type="MotorCycle" route="route_24" depart="95" />
<vehicle id="Bus_313" type="MotorCycle" route="route_21" depart="96" />
<vehicle id="MotorCycle_314" type="MotorCycle" route="route_23" depart="96" />
<vehicle id="Auto_315" type="MotorCycle" route="route_23" depart="97" />
<vehicle id="Auto_316" type="MotorCycle" route="route_4" depart="98" />
<vehicle id="Auto_317" type="Car" route="route_22" depart="98" />
<vehicle id="Auto_318" type="MotorCycle" route="route_21" depart="99" />
<vehicle id="Auto_319" type="Car" route="route_21" depart="99" />
<vehicle id="MotorCycle_320" type="MotorCycle" route="route_22" depart="99" />
<vehicle id="Auto_321" type="Auto" route="route_2" depart="100" />
<vehicle id="Auto_322" type="MotorCycle" route="route_2" depart="100" />
<vehicle id="Auto_323" type="MotorCycle" route="route_5" depart="100" />
<vehicle id="Auto_324" type="Car" route="route_5" depart="100" />
<vehicle id="Bus_325" type="MotorCycle" route="route_7" depart="100" />
<vehicle id="Bus_326" type="Car" route="route_7" depart="100" />
<vehicle id="Bus_327" type="Auto" route="route_10" depart="100" />
<vehicle id="Bus_328" type="MotorCycle" route="route_10" depart="100" />
<vehicle id="Bus_329" type="Car" route="route_10" depart="100" />
<vehicle id="Bus_330" type="MotorCycle" route="route_21" depart="100" />
<vehicle id="Bus_331" type="Car" route="route_21" depart="100" />
<vehicle id="MotorCycle_332" type="MotorCycle" route="route_23" depart="100" />
<vehicle id="Bus_333" type="MotorCycle" route="route_4" depart="101" />
<vehicle id="Bus_334" type="MotorCycle" route="route_7" depart="101" />
<vehicle id="Car_335" type="MotorCycle" route="route_19" depart="101" />
<vehicle id="MotorCycle_336" type="MotorCycle" route="route_21" depart="101" />
<vehicle id="Auto_337" type="Bus" route="route_23" depart="101" />
<vehicle id="Auto_338" type="Auto" route="route_23" depart="101" />
<vehicle id="Auto_339" type="MotorCycle" route="route_23" depart="101" />
<vehicle id="Car_340" type="MotorCycle" route="route_24" depart="101" />
<vehicle id="MotorCycle_341" type="MotorCycle" route="route_5" depart="102" />
<vehicle id="Bus_342" type="MotorCycle" route="route_10" depart="102" />
<vehicle id="Bus_343" type="Car" route="route_10" depart="102" />
<vehicle id="MotorCycle_344" type="MotorCycle" route="route_14" depart="102" />
<vehicle id="Auto_345" type="MotorCycle" route="route_21" depart="102" />
<vehicle id="Car_346" type="Auto" route="route_22" depart="102" />
<vehicle id="Car_347" type="MotorCycle" route="route_22" depart="102" />
<vehicle id="Bus_348" type="MotorCycle" route="route_24" depart="102" />
<vehicle id="Car_349" type="Auto" route="route_16" depart="103" />
<vehicle id="Car_350" type="MotorCycle" route="route_16" depart="103" />
<vehicle id="Bus_351" type="MotorCycle" route="route_19" depart="103" />
<vehicle id="Auto_352" type="MotorCycle" route="route_20" depart="103" />
<vehicle id="Auto_353" type="Car" route="route_20" depart="103" />
<vehicle id="MotorCycle_354" type="MotorCycle" route="route_21" depart="103" />
<vehicle id="Car_355" type="MotorCycle" route="route_22" depart="103" />
<vehicle id="MotorCycle_356" type="Auto" route="route_3" depart="104" />
<vehicle id="MotorCycle_357" type="Auto" route="route_19" depart="104" />
<vehicle id="MotorCycle_358" type="MotorCycle" route="route_19" depart="104" />
<vehicle id="Bus_359" type="MotorCycle" route="route_23" depart="104" />
<vehicle id="Auto_360" type="MotorCycle" route="route_5" depart="105" />
<vehicle id="MotorCycle_361" type="Auto" route="route_9" depart="105" />
<vehicle id="Bus_362" type="MotorCycle" route="route_19" depart="105" />
<vehicle id="Bus_363" type="MotorCycle" route="route_23" depart="105" />
<vehicle id="Bus_364" type="Car" route="route_23" depart="105" />
<vehicle id="MotorCycle_365" type="MotorCycle" route="route_6" depart="106" />
<vehicle id="Car_366" type="MotorCycle" route="route_19" depart="106" />
<vehicle id="Bus_367" type="MotorCycle" route="route_21" depart="106" />
<vehicle id="Bus_368" type="Car" route="route_21" depart="106" />
<vehicle id="MotorCycle_369" type="MotorCycle" route="route_22" depart="106" />
<vehicle id="MotorCycle_370" type="MotorCycle" route="route_22" depart="107" />
<vehicle id="Car_371" type="Auto" route="route_20" depart="108" />
<vehicle id="Auto_372" type="MotorCycle" route="route_21" depart="109" />
<vehicle id="Auto_373" type="Car" route="route_21" depart="109" />
<vehicle id="Bus_374" type="MotorCycle" route="route_1" depart="110" />
<vehicle id="Bus_375" type="Car" route="route_1" depart="110" />
<vehicle id="Car_376" type="MotorCycle" route="route_8" depart="110" />
<vehicle id="Car_377" type="Car" route="route_8" depart="110" />
<vehicle id="MotorCycle_378" type="MotorCycle" route="route_10" depart="110" />