<routes>
<vType id="Bus" accel="0.6" decel="3.5" sigma="0.5" length="10.1" minGap="1.0" maxSpeed="16.67" carFollowModel="Wiedemann" guiShape="bus" width="2.45" latAlignment="left" laneChangeModel="SL2015" lcStrategic="0.5" lcCooperative="0.0"/>
<vType id="Auto" accel="0.7" decel="4.5" sigma="0.5" length="2.6" minGap="0.3" maxSpeed="16" carFollowModel="Wiedemann" guiShape="passenger/sedan" width="1.25" latAlignment="left" laneChangeModel="SL2015" lcStrategic="0.5" lcCooperative="0.0" />
<vType id="MotorCycle" accel="0.9" decel="3.5" sigma="0.5" length="1.85" minGap="0.15"  carFollowModel="Wiedemann" maxSpeed="17" guiShape="motorcycle" width="0.7" latAlignment="left" laneChangeModel="SL2015" lcStrategic="0.5" lcCooperative="0.0"/>
<vType id="Car" accel="0.8" decel="4.5" sigma="0.5" length="3.6" minGap="0.5" maxSpeed="40" carFollowModel="Wiedemann" guiShape="passenger" width="1.5" latAlignment="left" laneChangeModel="SL2015" lcStrategic="0.5" lcCooperative="0.0"/>
<vType id="emergency" accel="2.8" decel="5.5" sigma="0.5" length="3.6" minGap="0.5" maxSpeed="120.6" carFollowModel="Wiedemann" guiShape="emergency" width="1.5" latAlignment="left" laneChangeModel="SL2015" lcStrategic="0.5" lcCooperative="0.0" vClass="emergency" speedFactor="1.9" jmDriveAfterRedTime="300" jmDriveAfterRedSpeed="5.56">
<param key="has.bluelight.device" value="true"/>
<param key="has.fcd.device" value="true"/> 
</vType>
<route id="route_0" edges="1i 52i gneE0 gneE2" />
<route id="route_1" edges="-gneE2 -gneE0 52o 2i 1o" />
        <route id="route_2" edges="4i 3o" />
        <route id="route_3" edges="3i 4o" />
        <route id="route_4" edges="-gneE1 gneE3" /> 
        <route id="route_5" edges="4i 1o" />
        <route id="route_6" edges="4i 2o 52i gneE0 gneE1" />
        <route id="route_7" edges="2i 4o" />
        <route id="route_8" edges="2i 3o" />
        <route id="route_9" edges="-gneE1 gneE3" />
        <route id="route_10" edges="3i 2o 52i gneE0 gneE3" />
        <route id="route_11" edges="3i 1o" />
        <route id="route_12" edges="-gneE1 -gneE0 52o 2i 4o" />
        <route id="route_13" edges="-gneE1 gneE2" />
        <route id="route_14" edges="-gneE2 gneE1" />
        <route id="route_15" edges="-gneE2 gneE3" />
        <route id="route_16" edges="-gneE3 -gneE0 52o 2i 3o" />
        <route id="route_17" edges="-gneE3 gneE2" />
        <route id="route_18" edges="gneE0 gneE3" />
        <route id="route_19" edges="gneE0 gneE1" />
        <route id="route_20" edges="1i 2o 52i gneE0 gneE2 -gneE4 gneE5" />
        <route id="route_21" edges="-gneE5 gneE4 -gneE2 -gneE0 52o 2i 1o" />
        <route id="route_22" edges="-gneE5 gneE4 -gneE2 -gneE0 52o 2i 3o" />
        <route id="route_23" edges="1i 2o 52i gneE0 gneE2 -gneE4 gneE7" />

	<route id="route_24" edges="gneE0"/>
<vehicle id="emergency_0" type="emergency" route="route_3" depart="0" />
<vehicle id="Bus_0" type="Bus" route="route_3" depart="0" />
<vehicle id="Car_0" type="Car" route="route_20" depart="0" />
<vehicle id="Bus_1" type="Car" route="route_22" depart="1" />
<vehicle id="Auto_2" type="MotorCycle" route="route_5" depart="2" />
<vehicle id="Auto_3" type="Car" route="route_5" depart="2" />
<vehicle id="Bus_4" type="MotorCycle" route="route_7" depart="2" />
<vehicle id="Bus_5" type="Car" route="route_7" depart="2" />
<vehicle id="Car_6" type="MotorCycle" route="route_21" depart="2" />
<vehicle id="Car_7" type="Car" route="route_21" depart="2" />
<vehicle id="Auto_8" type="MotorCycle" route="route_23" depart="2" />
<vehicle id="Car_9" type="MotorCycle" route="route_24" depart="2" />
<vehicle id="Car_10" type="MotorCycle" route="route_4" depart="3" />
<vehicle id="Bus_11" type="MotorCycle" route="route_22" depart="3" />
<vehicle id="Bus_12" type="Car" route="route_22" depart="3" />
<vehicle id="Car_13" type="MotorCycle" route="route_24" depart="3" />
<vehicle id="Car_14" type="MotorCycle" route="route_21" depart="4" />
<vehicle id="MotorCycle_15" type="MotorCycle" route="route_22" depart="4" />
<vehicle id="Bus_16" type="Auto" route="route_12" depart="5" />
<vehicle id="Bus_17" type="MotorCycle" route="route_12" depart="5" />
<vehicle id="Bus_18" type="MotorCycle" route="route_19" depart="5" />
<vehicle id="Bus_19" type="MotorCycle" route="route_21" depart="5" />
<vehicle id="Bus_20" type="Auto" route="route_23" depart="5" />
<vehicle id="Bus_21" type="MotorCycle" route="route_21" depart="7" />
<vehicle id="Bus_22" type="Car" route="route_21" depart="7" />
<vehicle id="Car_23" type="MotorCycle" route="route_3" depart="8" />
<vehicle id="MotorCycle_24" type="MotorCycle" route="route_10" depart="8" />
<vehicle id="MotorCycle_25" type="Car" route="route_10" depart="8" />
<vehicle id="MotorCycle_26" type="Auto" route="route_22" depart="8" />
<vehicle id="MotorCycle_27" type="MotorCycle" route="route_22" depart="8" />
<vehicle id="Bus_28" type="MotorCycle" route="route_20" depart="9" />
<vehicle id="Bus_29" type="Car" route="route_20" depart="9" />
<vehicle id="Car_30" type="MotorCycle" route="route_22" depart="9" />
<vehicle id="Car_31" type="Car" route="route_22" depart="9" />
<vehicle id="Bus_32" type="MotorCycle" route="route_23" depart="9" />
<vehicle id="MotorCycle_33" type="MotorCycle" route="route_1" depart="10" />
<vehicle id="MotorCycle_34" type="Car" route="route_1" depart="10" />
<vehicle id="Car_35" type="MotorCycle" route="route_9" depart="10" />
<vehicle id="Car_36" type="MotorCycle" route="route_22" depart="10" />
<vehicle id="Auto_37" type="MotorCycle" route="route_7" depart="11" />
<vehicle id="Car_38" type="MotorCycle" route="route_14" depart="11" />
<vehicle id="Car_39" type="MotorCycle" route="route_23" depart="11" />
<vehicle id="MotorCycle_40" type="MotorCycle" route="route_7" depart="12" />
<vehicle id="Bus_41" type="MotorCycle" route="route_21" depart="12" />
<vehicle id="Bus_42" type="Car" route="route_21" depart="12" />
<vehicle id="Car_43" type="MotorCycle" route="route_22" depart="12" />
<vehicle id="Bus_44" type="Auto" route="route_2" depart="13" />
<vehicle id="Bus_45" type="MotorCycle" route="route_2" depart="13" />
<vehicle id="Bus_46" type="Car" route="route_2" depart="13" />
<vehicle id="Car_47" type="MotorCycle" route="route_23" depart="13" />
<vehicle id="MotorCycle_48" type="MotorCycle" route="route_20" depart="14" />
<vehicle id="Bus_49" type="MotorCycle" route="route_21" depart="14" />
<vehicle id="Car_50" type="Auto" route="route_22" depart="14" />
<vehicle id="Car_51" type="MotorCycle" route="route_22" depart="14" />
<vehicle id="MotorCycle_52" type="MotorCycle" route="route_4" depart="15" />
<vehicle id="Bus_53" type="MotorCycle" route="route_21" depart="15" />
<vehicle id="Car_54" type="MotorCycle" route="route_22" depart="15" />
<vehicle id="Auto_55" type="Car" route="route_19" depart="16" />
<vehicle id="Auto_56" type="Auto" route="route_20" depart="16" />
<vehicle id="Auto_57" type="MotorCycle" route="route_20" depart="16" />
<vehicle id="Car_58" type="MotorCycle" route="route_22" depart="16" />
<vehicle id="Auto_59" type="MotorCycle" route="route_24" depart="16" />
<vehicle id="Car_60" type="MotorCycle" route="route_4" depart="17" />
<vehicle id="Bus_61" type="MotorCycle" route="route_11" depart="17" />
<vehicle id="MotorCycle_62" type="MotorCycle" route="route_19" depart="17" />
<vehicle id="MotorCycle_63" type="MotorCycle" route="route_21" depart="17" />
<vehicle id="Bus_64" type="MotorCycle" route="route_24" depart="17" />
<vehicle id="Bus_65" type="Car" route="route_24" depart="17" />
<vehicle id="Auto_66" type="MotorCycle" route="route_12" depart="18" />
<vehicle id="Car_67" type="MotorCycle" route="route_22" depart="18" />
<vehicle id="Car_68" type="Car" route="route_22" depart="18" />
<vehicle id="MotorCycle_69" type="Auto" route="route_11" depart="19" />
<vehicle id="Car_70" type="Auto" route="route_12" depart="19" />
<vehicle id="Car_71" type="MotorCycle" route="route_12" depart="19" />
<vehicle id="Car_72" type="MotorCycle" route="route_16" depart="19" />
<vehicle id="Car_73" type="MotorCycle" route="route_20" depart="19" />
<vehicle id="Car_74" type="MotorCycle" route="route_21" depart="19" />
<vehicle id="Car_75" type="Car" route="route_21" depart="19" />
<vehicle id="Auto_76" type="MotorCycle" route="route_22" depart="19" />
<vehicle id="Auto_77" type="MotorCycle" route="route_19" depart="20" />
<vehicle id="Bus_78" type="MotorCycle" route="route_22" depart="20" />
<vehicle id="Auto_79" type="MotorCycle" route="route_23" depart="20" />
<vehicle id="MotorCycle_80" type="MotorCycle" route="route_11" depart="21" />
<vehicle id="MotorCycle_81" type="Car" route="route_11" depart="21" />
<vehicle id="Car_82" type="MotorCycle" route="route_22" depart="21" />
<vehicle id="Bus_83" type="MotorCycle" route="route_3" depart="22" />
<vehicle id="Bus_84" type="Car" route="route_3" depart="22" />
<vehicle id="Auto_85" type="MotorCycle" route="route_4" depart="22" />
<vehicle id="Bus_86" type="Auto" route="route_20" depart="22" />
<vehicle id="Bus_87" type="Auto" route="route_22" depart="22" />
<vehicle id="Bus_88" type="MotorCycle" route="route_22" depart="22" />
<vehicle id="MotorCycle_89" type="MotorCycle" route="route_5" depart="23" />
<vehicle id="Bus_90" type="Auto" route="route_19" depart="23" />
<vehicle id="Bus_91" type="Car" route="route_19" depart="23" />
<vehicle id="Auto_92" type="MotorCycle" route="route_22" depart="23" />
<vehicle id="Auto_93" type="Car" route="route_22" depart="23" />
<vehicle id="Car_94" type="MotorCycle" route="route_3" depart="24" />
<vehicle id="MotorCycle_95" type="MotorCycle" route="route_21" depart="24" />
<vehicle id="Bus_96" type="MotorCycle" route="route_4" depart="25" />
<vehicle id="MotorCycle_97" type="MotorCycle" route="route_23" depart="25" />
<vehicle id="Auto_98" type="MotorCycle" route="route_3" depart="26" />
<vehicle id="Car_99" type="MotorCycle" route="route_22" depart="27" />
<vehicle id="Car_100" type="MotorCycle" route="route_7" depart="28" />
<vehicle id="Bus_101" type="Car" route="route_21" depart="28" />
<vehicle id="MotorCycle_102" type="MotorCycle" route="route_22" depart="28" />
<vehicle id="Auto_103" type="MotorCycle" route="route_3" depart="29" />
<vehicle id="Bus_104" type="MotorCycle" route="route_21" depart="29" />
<vehicle id="Bus_105" type="Car" route="route_21" depart="29" />
<vehicle id="Car_106" type="MotorCycle" route="route_24" depart="29" />
<vehicle id="Auto_107" type="MotorCycle" route="route_23" depart="30" />
<vehicle id="Auto_108" type="MotorCycle" route="route_21" depart="31" />
<vehicle id="Auto_109" type="MotorCycle" route="route_19" depart="32" />
<vehicle id="MotorCycle_110" type="MotorCycle" route="route_22" depart="32" />
<vehicle id="MotorCycle_111" type="Car" route="route_22" depart="32" />
<vehicle id="Car_112" type="MotorCycle" route="route_3" depart="33" />
<vehicle id="Bus_113" type="MotorCycle" route="route_4" depart="33" />
<vehicle id="Car_114" type="MotorCycle" route="route_20" depart="33" />
<vehicle id="Car_115" type="Car" route="route_20" depart="33" />
<vehicle id="MotorCycle_116" type="Auto" route="route_22" depart="33" />
<vehicle id="MotorCycle_117" type="MotorCycle" route="route_22" depart="33" />
<vehicle id="Car_118" type="MotorCycle" route="route_21" depart="34" />
<vehicle id="Auto_119" type="Car" route="route_21" depart="35" />
<vehicle id="MotorCycle_120" type="MotorCycle" route="route_22" depart="35" />
<vehicle id="Car_121" type="MotorCycle" route="route_23" depart="35" />
<vehicle id="Bus_122" type="MotorCycle" route="route_2" depart="36" />
<vehicle id="Car_123" type="MotorCycle" route="route_24" depart="36" />
<vehicle id="Car_124" type="MotorCycle" route="route_8" depart="38" />
<vehicle id="Car_125" type="Car" route="route_11" depart="38" />
<vehicle id="Car_126" type="MotorCycle" route="route_20" depart="38" />
<vehicle id="Auto_127" type="MotorCycle" route="route_19" depart="39" />
<vehicle id="Car_128" type="MotorCycle" route="route_22" depart="39" />
<vehicle id="Car_129" type="MotorCycle" route="route_23" depart="39" />
<vehicle id="Car_130" type="MotorCycle" route="route_24" depart="39" />
<vehicle id="MotorCycle_131" type="Car" route="route_7" depart="40" />
<vehicle id="MotorCycle_132" type="MotorCycle" route="route_21" depart="41" />
<vehicle id="MotorCycle_133" type="Auto" route="route_24" depart="41" />
<vehicle id="MotorCycle_134" type="MotorCycle" route="route_24" depart="41" />
<vehicle id="Bus_135" type="MotorCycle" route="route_3" depart="43" />
<vehicle id="Car_136" type="Auto" route="route_20" depart="43" />
<vehicle id="Car_137" type="MotorCycle" route="route_20" depart="43" />
<vehicle id="Auto_138" type="MotorCycle" route="route_11" depart="44" />
<vehicle id="Auto_139" type="MotorCycle" route="route_24" depart="44" />
<vehicle id="Bus_140" type="MotorCycle" route="route_3" depart="45" />
<vehicle id="Auto_141" type="MotorCycle" route="route_22" depart="45" />
<vehicle id="MotorCycle_142" type="MotorCycle" route="route_2" depart="46" />
<vehicle id="Car_143" type="MotorCycle" route="route_20" depart="46" />
<vehicle id="Car_144" type="MotorCycle" route="route_12" depart="47" />
<vehicle id="Car_145" type="MotorCycle" route="route_24" depart="47" />
<vehicle id="Car_146" type="MotorCycle" route="route_16" depart="48" />
<vehicle id="Car_147" type="Car" route="route_16" depart="48" />
<vehicle id="MotorCycle_148" type="MotorCycle" route="route_21" depart="48" />
<vehicle id="Auto_149" type="MotorCycle" route="route_20" depart="49" />
<vehicle id="Car_150" type="MotorCycle" route="route_21" depart="49" />
<vehicle id="Car_151" type="Car" route="route_21" depart="49" />
<vehicle id="Bus_152" type="MotorCycle" route="route_22" depart="49" />
<vehicle id="Car_153" type="MotorCycle" route="route_21" depart="51" />
<vehicle id="Auto_154" type="MotorCycle" route="route_22" depart="51" />
<vehicle id="Car_155" type="MotorCycle" route="route_4" depart="52" />
<vehicle id="Bus_156" type="Car" route="route_20" depart="52" />
<vehicle id="Car_157" type="Auto" route="route_21" depart="52" />
<vehicle id="Car_158" type="MotorCycle" route="route_21" depart="52" />
<vehicle id="Car_159" type="Bus" route="route_7" depart="53" />
<vehicle id="Car_160" type="MotorCycle" route="route_7" depart="53" />
<vehicle id="MotorCycle_161" type="MotorCycle" route="route_20" depart="53" />
<vehicle id="MotorCycle_162" type="Car" route="route_20" depart="53" />
<vehicle id="Auto_163" type="Auto" route="route_21" depart="53" />
<vehicle id="Auto_164" type="MotorCycle" route="route_21" depart="53" />
<vehicle id="Auto_165" type="Car" route="route_21" depart="53" />
<vehicle id="Car_166" type="MotorCycle" route="route_10" depart="54" />
<vehicle id="Car_167" type="MotorCycle" route="route_21" depart="54" />
<vehicle id="Car_168" type="MotorCycle" route="route_22" depart="54" />
<vehicle id="Bus_169" type="MotorCycle" route="route_20" depart="55" />
<vehicle id="MotorCycle_170" type="MotorCycle" route="route_21" depart="55" />
<vehicle id="Car_171" type="MotorCycle" route="route_22" depart="56" />
<vehicle id="MotorCycle_172" type="MotorCycle" route="route_23" depart="56" />
<vehicle id="Car_173" type="MotorCycle" route="route_24" depart="56" />
<vehicle id="Bus_174" type="MotorCycle" route="route_22" depart="57" />
<vehicle id="Bus_175" type="Car" route="route_22" depart="57" />
<vehicle id="Bus_176" type="MotorCycle" route="route_6" depart="58" />
<vehicle id="Auto_177" type="MotorCycle" route="route_23" depart="58" />
<vehicle id="Bus_178" type="Car" route="route_7" depart="59" />
<vehicle id="MotorCycle_179" type="MotorCycle" route="route_16" depart="59" />
<vehicle id="MotorCycle_180" type="MotorCycle" route="route_4" depart="60" />
<vehicle id="Bus_181" type="Bus" route="route_11" depart="60" />
<vehicle id="Bus_182" type="MotorCycle" route="route_11" depart="60" />
<vehicle id="Bus_183" type="Car" route="route_11" depart="60" />
<vehicle id="MotorCycle_184" type="MotorCycle" route="route_22" depart="60" />
<vehicle id="Bus_185" type="MotorCycle" route="route_23" depart="61" />
<vehicle id="Bus_186" type="MotorCycle" route="route_24" depart="61" />
<vehicle id="Car_187" type="Car" route="route_8" depart="62" />
<vehicle id="Auto_188" type="Bus" route="route_20" depart="62" />
<vehicle id="Auto_189" type="MotorCycle" route="route_20" depart="62" />
<vehicle id="Auto_190" type="Auto" route="route_21" depart="62" />
<vehicle id="Auto_191" type="MotorCycle" route="route_21" depart="62" />
<vehicle id="Auto_192" type="MotorCycle" route="route_19" depart="63" />
<vehicle id="Auto_193" type="Car" route="route_19" depart="63" />
<vehicle id="Car_194" type="MotorCycle" route="route_21" depart="63" />
<vehicle id="MotorCycle_195" type="MotorCycle" route="route_4" depart="64" />
<vehicle id="Car_196" type="MotorCycle" route="route_22" depart="65" />
<vehicle id="Car_197" type="Car" route="route_22" depart="65" />
<vehicle id="Bus_198" type="MotorCycle" route="route_21" depart="66" />
<vehicle id="Bus_199" type="Car" route="route_21" depart="66" />
<vehicle id="Auto_200" type="Auto" route="route_22" depart="66" />
<vehicle id="Auto_201" type="MotorCycle" route="route_22" depart="66" />
<vehicle id="Bus_202" type="MotorCycle" route="route_19" depart="67" />
<vehicle id="Car_203" type="MotorCycle" route="route_24" depart="67" />
<vehicle id="MotorCycle_204" type="MotorCycle" route="route_4" depart="68" />
<vehicle id="MotorCycle_205" type="Car" route="route_4" depart="68" />
<vehicle id="MotorCycle_206" type="MotorCycle" route="route_19" depart="68" />
<vehicle id="Car_207" type="Auto" route="route_21" depart="68" />
<vehicle id="Car_208" type="MotorCycle" route="route_21" depart="68" />
<vehicle id="Car_209" type="Car" route="route_21" depart="68" />
<vehicle id="Auto_210" type="Auto" route="route_22" depart="68" />
<vehicle id="Auto_211" type="MotorCycle" route="route_22" depart="68" />
<vehicle id="Auto_212" type="Car" route="route_22" depart="68" />
<vehicle id="Car_213" type="MotorCycle" route="route_15" depart="69" />
<vehicle id="Car_214" type="MotorCycle" route="route_21" depart="69" />
<vehicle id="MotorCycle_215" type="MotorCycle" route="route_21" depart="70" />
<vehicle id="MotorCycle_216" type="MotorCycle" route="route_20" depart="71" />
<vehicle id="Car_217" type="MotorCycle" route="route_21" depart="71" />
<vehicle id="MotorCycle_218" type="MotorCycle" route="route_22" depart="72" />
<vehicle id="Car_219" type="MotorCycle" route="route_24" depart="72" />
<vehicle id="MotorCycle_220" type="MotorCycle" route="route_21" depart="73" />
<vehicle id="MotorCycle_221" type="MotorCycle" route="route_22" depart="73" />
<vehicle id="Car_222" type="Car" route="route_24" depart="73" />
<vehicle id="Auto_223" type="MotorCycle" route="route_3" depart="74" />
<vehicle id="MotorCycle_224" type="Car" route="route_11" depart="74" />
<vehicle id="Bus_225" type="Car" route="route_19" depart="74" />
<vehicle id="Auto_226" type="MotorCycle" route="route_22" depart="74" />
<vehicle id="Bus_227" type="Car" route="route_4" depart="75" />
<vehicle id="Auto_228" type="Bus" route="route_21" depart="75" />
<vehicle id="Auto_229" type="MotorCycle" route="route_21" depart="75" />
<vehicle id="Auto_230" type="MotorCycle" route="route_21" depart="76" />
<vehicle id="Auto_231" type="MotorCycle" route="route_22" depart="76" />
<vehicle id="MotorCycle_232" type="MotorCycle" route="route_24" depart="76" />
<vehicle id="MotorCycle_233" type="MotorCycle" route="route_10" depart="77" />
<vehicle id="MotorCycle_234" type="MotorCycle" route="route_20" depart="77" />
<vehicle id="Car_235" type="MotorCycle" route="route_24" depart="77" />
<vehicle id="MotorCycle_236" type="MotorCycle" route="route_7" depart="78" />
<vehicle id="Car_237" type="Auto" route="route_20" depart="78" />
<vehicle id="Car_238" type="MotorCycle" route="route_20" depart="78" />
<vehicle id="Bus_239" type="MotorCycle" route="route_23" depart="78" />
<vehicle id="Bus_240" type="Car" route="route_23" depart="78" />
<vehicle id="Car_241" type="MotorCycle" route="route_8" depart="79" />
<vehicle id="Auto_242" type="MotorCycle" route="route_19" depart="79" />
<vehicle id="Auto_243" type="MotorCycle" route="route_22" depart="79" />
<vehicle id="Auto_244" type="Car" route="route_22" depart="79" />
<vehicle id="Bus_245" type="MotorCycle" route="route_23" depart="79" />
<vehicle id="Bus_246" type="Car" route="route_23" depart="79" />
<vehicle id="Bus_247" type="MotorCycle" route="route_24" depart="79" />
<vehicle id="Bus_248" type="Car" route="route_24" depart="79" />
<vehicle id="Car_249" type="MotorCycle" route="route_2" depart="80" />
<vehicle id="Car_250" type="MotorCycle" route="route_22" depart="80" />
<vehicle id="Bus_251" type="MotorCycle" route="route_10" depart="81" />
<vehicle id="Car_252" type="MotorCycle" route="route_20" depart="81" />
<vehicle id="Auto_253" type="MotorCycle" route="route_10" depart="82" />
<vehicle id="MotorCycle_254" type="MotorCycle" route="route_24" depart="82" />
<vehicle id="Auto_255" type="MotorCycle" route="route_3" depart="83" />
<vehicle id="Auto_256" type="MotorCycle" route="route_21" depart="83" />
<vehicle id="Bus_257" type="MotorCycle" route="route_22" depart="83" />
<vehicle id="MotorCycle_258" type="Car" route="route_3" depart="84" />
<vehicle id="Auto_259" type="MotorCycle" route="route_20" depart="84" />
<vehicle id="Auto_260" type="Car" route="route_20" depart="84" />
<vehicle id="Auto_261" type="MotorCycle" route="route_23" depart="84" />
<vehicle id="Car_262" type="MotorCycle" route="route_24" depart="84" />
<vehicle id="Car_263" type="MotorCycle" route="route_21" depart="85" />
<vehicle id="MotorCycle_264" type="MotorCycle" route="route_24" depart="85" />
<vehicle id="MotorCycle_265" type="Auto" route="route_19" depart="86" />
<vehicle id="MotorCycle_266" type="MotorCycle" route="route_19" depart="86" />
<vehicle id="MotorCycle_267" type="Car" route="route_19" depart="86" />
<vehicle id="Auto_268" type="Auto" route="route_20" depart="86" />
<vehicle id="Auto_269" type="Car" route="route_20" depart="86" />
<vehicle id="Auto_270" type="MotorCycle" route="route_13" depart="87" />
<vehicle id="MotorCycle_271" type="MotorCycle" route="route_17" depart="87" />
<vehicle id="Bus_272" type="MotorCycle" route="route_23" depart="87" />
<vehicle id="Bus_273" type="MotorCycle" route="route_19" depart="88" />
<vehicle id="Auto_274" type="MotorCycle" route="route_21" depart="88" />
<vehicle id="MotorCycle_275" type="MotorCycle" route="route_22" depart="88" />
<vehicle id="Auto_276" type="MotorCycle" route="route_23" depart="88" />
<vehicle id="Auto_277" type="Car" route="route_23" depart="88" />
<vehicle id="Bus_278" type="MotorCycle" route="route_4" depart="89" />
<vehicle id="Car_279" type="Bus" route="route_22" depart="89" />
<vehicle id="Car_280" type="MotorCycle" route="route_22" depart="89" />
<vehicle id="MotorCycle_281" type="MotorCycle" route="route_23" depart="89" />
<vehicle id="Bus_282" type="MotorCycle" route="route_24" depart="89" />
<vehicle id="Bus_283" type="Car" route="route_19" depart="90" />
<vehicle id="MotorCycle_284" type="MotorCycle" route="route_22" depart="90" />
<vehicle id="MotorCycle_285" type="Auto" route="route_24" depart="90" />
<vehicle id="Car_286" type="Auto" route="route_7" depart="91" />
<vehicle id="Car_287" type="MotorCycle" route="route_7" depart="91" />
<vehicle id="Car_288" type="Car" route="route_7" depart="91" />
<vehicle id="MotorCycle_289" type="MotorCycle" route="route_20" depart="91" />
<vehicle id="MotorCycle_290" type="Car" route="route_20" depart="91" />
<vehicle id="Bus_291" type="Auto" route="route_24" depart="91" />
<vehicle id="Bus_292" type="MotorCycle" route="route_24" depart="91" />
<vehicle id="Auto_293" type="MotorCycle" route="route_8" depart="92" />
<vehicle id="Auto_294" type="MotorCycle" route="route_16" depart="92" />
<vehicle id="Auto_295" type="MotorCycle" route="route_1" depart="93" />
<vehicle id="Car_296" type="MotorCycle" route="route_3" depart="93" />
<vehicle id="Car_297" type="Car" route="route_3" depart="93" />
<vehicle id="Auto_298" type="MotorCycle" route="route_4" depart="93" />
<vehicle id="MotorCycle_299" type="MotorCycle" route="route_11" depart="93" />
<vehicle id="Auto_300" type="MotorCycle" route="route_22" depart="93" />
<vehicle id="Car_301" type="MotorCycle" route="route_24" depart="93" />
<vehicle id="Car_302" type="Car" route="route_24" depart="93" />
<vehicle id="Auto_303" type="MotorCycle" route="route_20" depart="94" />
<vehicle id="MotorCycle_304" type="MotorCycle" route="route_24" depart="94" />
<vehicle id="MotorCycle_305" type="MotorCycle" route="route_22" depart="95" />
<vehicle id="MotorCycle_306" type="Car" route="route_22" depart="95" />
<vehicle id="Auto_307" type="Auto" route="route_11" depart="96" />
<vehicle id="Auto_308" type="MotorCycle" route="route_11" depart="96" />
<vehicle id="MotorCycle_309" type="MotorCycle" route="route_24" depart="96" />
<vehicle id="Auto_310" type="Car" route="route_2" depart="97" />
<vehicle id="Auto_311" type="MotorCycle" route="route_4" depart="97" />
<vehicle id="MotorCycle_312" type="MotorCycle" route="route_20" depart="97" />
<vehicle id="MotorCycle_313" type="Car" route="route_20" depart="97" />
<vehicle id="MotorCycle_314" type="Bus" route="route_10" depart="98" />
<vehicle id="MotorCycle_315" type="MotorCycle" route="route_10" depart="98" />
<vehicle id="Bus_316" type="MotorCycle" route="route_20" depart="98" />
<vehicle id="Auto_317" type="Auto" route="route_23" depart="98" />
<vehicle id="Auto_318" type="MotorCycle" route="route_23" depart="98" />
<vehicle id="Bus_319" type="MotorCycle" route="route_19" depart="99" />
<vehicle id="Bus_320" type="MotorCycle" route="route_22" depart="99" />
<vehicle id="Bus_321" type="MotorCycle" route="route_1" depart="101" />
<vehicle id="Bus_322" type="MotorCycle" route="route_11" depart="101" />
<vehicle id="Car_323" type="MotorCycle" route="route_22" depart="101" />
<vehicle id="Bus_324" type="MotorCycle" route="route_24" depart="101" />
<vehicle id="Bus_325" type="Car" route="route_24" depart="101" />
<vehicle id="Car_326" type="MotorCycle" route="route_24" depart="102" />
<vehicle id="Bus_327" type="MotorCycle" route="route_1" depart="103" />
<vehicle id="Bus_328" type="Auto" route="route_21" depart="103" />
<vehicle id="Bus_329" type="MotorCycle" route="route_21" depart="103" />
<vehicle id="Car_330" type="Auto" route="route_22" depart="103" />
<vehicle id="Car_331" type="MotorCycle" route="route_22" depart="103" />
<vehicle id="Bus_332" type="MotorCycle" route="route_5" depart="105" />
<vehicle id="Bus_333" type="Car" route="route_5" depart="105" />
<vehicle id="Auto_334" type="MotorCycle" route="route_21" depart="105" />
<vehicle id="Bus_335" type="MotorCycle" route="route_23" depart="105" />
<vehicle id="Bus_336" type="Car" route="route_1" depart="106" />
<vehicle id="MotorCycle_337" type="Car" route="route_22" depart="106" />
<vehicle id="MotorCycle_338" type="MotorCycle" route="route_23" depart="106" />
<vehicle id="Car_339" type="MotorCycle" route="route_11" depart="107" />
<vehicle id="Auto_340" type="Auto" route="route_20" depart="107" />
<vehicle id="Auto_341" type="MotorCycle" route="route_20" depart="107" />
<vehicle id="Car_342" type="MotorCycle" route="route_22" depart="107" />
<vehicle id="Car_343" type="Car" route="route_22" depart="107" />
<vehicle id="Auto_344" type="Car" route="route_8" depart="108" />
<vehicle id="Car_345" type="MotorCycle" route="route_22" depart="108" />
<vehicle id="MotorCycle_346" type="MotorCycle" route="route_23" depart="108" />
<vehicle id="MotorCycle_347" type="MotorCycle" route="route_24" depart="108" />
<vehicle id="MotorCycle_348" type="Bus" route="route_3" depart="109" />
<vehicle id="Auto_349" type="MotorCycle" route="route_11" depart="109" />
<vehicle id="Bus_350" type="MotorCycle" route="route_12" depart="109" />
<vehicle id="Bus_351" type="MotorCycle" route="route_22" depart="109" />
<vehicle id="MotorCycle_352" type="MotorCycle" route="route_23" depart="109" />
<vehicle id="MotorCycle_353" type="Car" route="route_23" depart="109" />
<vehicle id="Car_354" type="MotorCycle" route="route_24" depart="109" />
<vehicle id="MotorCycle_355" type="Bus" route="route_24" depart="110" />
<vehicle id="MotorCycle_356" type="MotorCycle" route="route_24" depart="110" />
<vehicle id="Car_357" type="MotorCycle" route="route_21" depart="111" />
<vehicle id="Bus_358" type="Bus" route="route_21" depart="112" />
<vehicle id="Bus_359" type="MotorCycle" route="route_21" depart="112" />
<vehicle id="MotorCycle_360" type="MotorCycle" route="route_23" depart="112" />
<vehicle id="Auto_361" type="MotorCycle" route="route_24" depart="112" />
<vehicle id="Auto_362" type="MotorCycle" route="route_16" depart="113" />
<vehicle id="MotorCycle_363" type="MotorCycle" route="route_21" depart="113" />
<vehicle id="MotorCycle_364" type="Car" route="route_21" depart="113" />
<vehicle id="MotorCycle_365" type="MotorCycle" route="route_20" depart="114" />
<vehicle id="Auto_366" type="Auto" route="route_21" depart="114" />
<vehicle id="Auto_367" type="MotorCycle" route="route_21" depart="114" />
<vehicle id="Auto_368" type="MotorCycle" route="route_24" depart="114" />
<vehicle id="Auto_369" type="Car" route="route_24" depart="114" />
<vehicle id="Auto_370" type="MotorCycle" route="route_19" depart="115" />
<vehicle id="Auto_371" type="MotorCycle" route="route_22" depart="115" />
<vehicle id="Car_372" type="MotorCycle" route="route_8" depart="116" />
<vehicle id="MotorCycle_373" type="MotorCycle" route="route_19" depart="116" />
<vehicle id="MotorCycle_374" type="MotorCycle" route="route_9" depart="117" />
<vehicle id="MotorCycle_375" type="MotorCycle" route="route_19" depart="117" />
<vehicle id="Car_376" type="MotorCycle" route="route_12" depart="118" />
<vehicle id="MotorCycle_377" type="MotorCycle" route="route_19" depart="118" />