<routes>
<vType id="Bus" accel="0.6" decel="3.5" sigma="0.5" length="10.1" minGap="1.0" maxSpeed="16.67" carFollowModel="Wiedemann" guiShape="bus" width="2.45" latAlignment="left" laneChangeModel="SL2015" lcStrategic="0.5" lcCooperative="0.0"/>
<vType id="Auto" accel="0.7" decel="4.5" sigma="0.5" length="2.6" minGap="0.3" maxSpeed="16" carFollowModel="Wiedemann" guiShape="passenger/sedan" width="1.25" latAlignment="left" laneChangeModel="SL2015" lcStrategic="0.5" lcCooperative="0.0" />
<vType id="MotorCycle" accel="0.9" decel="3.5" sigma="0.5" length="1.85" minGap="0.15"  carFollowModel="Wiedemann" maxSpeed="17" guiShape="motorcycle" width="0.7" latAlignment="left" laneChangeModel="SL2015" lcStrategic="0.5" lcCooperative="0.0"/>
<vType id="Car" accel="0.8" decel="4.5" sigma="0.5" length="3.6" minGap="0.5" maxSpeed="40" carFollowModel="Wiedemann" guiShape="passenger" width="1.5" latAlignment="left" laneChangeModel="SL2015" lcStrategic="0.5" lcCooperative="0.0"/>
<vType id="emergency" accel="2.8" decel="5.5" sigma="0.5" length="3.6" minGap="0.5" maxSpeed="120.6" carFollowModel="Wiedemann" guiShape="emergency" width="1.5" latAlignment="left" laneChangeModel="SL2015" lcStrategic="0.5" lcCooperative="0.0" vClass="emergency" speedFactor="1.9" jmDriveAfterRedTime="300" jmDriveAfterRedSpeed="5.56">
<param key="has.bluelight.device" value="true"/>
<param key="has.fcd.device" value="true"/> 
</vType>
<route id="route_0" edges="1i 52i gneE0 gneE2" />
<route id="route_1" edges="-gneE2 -gneE0 52o 2i 1o" />
        <route id="route_2" edges="4i 3o" />
        <route id="route_3" edges="3i 4o" />
        <route id="route_4" edges="-gneE1 gneE3" /> 
        <route id="route_5" edges="4i 1o" />
        <route id="route_6" edges="4i 2o 52i gneE0 gneE1" />
        <route id="route_7" edges="2i 4o" />
        <route id="route_8" edges="2i 3o" />
        <route id="route_9" edges="-gneE1 gneE3" />
        <route id="route_10" edges="3i 2o 52i gneE0 gneE3" />
        <route id="route_11" edges="3i 1o" />
        <route id="route_12" edges="-gneE1 -gneE0 52o 2i 4o" />
        <route id="route_13" edges="-gneE1 gneE2" />
        <route id="route_14" edges="-gneE2 gneE1" />
        <route id="route_15" edges="-gneE2 gneE3" />
        <route id="route_16" edges="-gneE3 -gneE0 52o 2i 3o" />
        <route id="route_17" edges="-gneE3 gneE2" />
        <route id="route_18" edges="gneE0 gneE3" />
        <route id="route_19" edges="gneE0 gneE1" />
        <route id="route_20" edges="1i 2o 52i gneE0 gneE2 -gneE4 gneE5" />
        <route id="route_21" edges="-gneE5 gneE4 -gneE2 -gneE0 52o 2i 1o" />
        <route id="route_22" edges="-gneE5 gneE4 -gneE2 -gneE0 52o 2i 3o" />
        <route id="route_23" edges="1i 2o 52i gneE0 gneE2 -gneE4 gneE7" />

	<route id="route_24" edges="gneE0"/>
<vehicle id="emergency_0" type="emergency" route="route_22" depart="0" />
<vehicle id="Bus_0" type="Bus" route="route_22" depart="0" />
<vehicle id="Car_0" type="Car" route="route_16" depart="0" />
<vehicle id="MotorCycle_1" type="MotorCycle" route="route_3" depart="1" />
<vehicle id="Car_2" type="MotorCycle" route="route_16" depart="1" />
<vehicle id="Car_3" type="Car" route="route_19" depart="1" />
<vehicle id="Auto_4" type="MotorCycle" route="route_23" depart="1" />
<vehicle id="Bus_5" type="MotorCycle" route="route_24" depart="2" />
<vehicle id="MotorCycle_6" type="MotorCycle" route="route_4" depart="3" />
<vehicle id="Car_7" type="MotorCycle" route="route_20" depart="3" />
<vehicle id="Car_8" type="MotorCycle" route="route_18" depart="4" />
<vehicle id="Auto_9" type="MotorCycle" route="route_21" depart="4" />
<vehicle id="MotorCycle_10" type="MotorCycle" route="route_22" depart="4" />
<vehicle id="MotorCycle_11" type="Car" route="route_22" depart="4" />
<vehicle id="Car_12" type="MotorCycle" route="route_4" depart="5" />
<vehicle id="Car_13" type="Car" route="route_4" depart="5" />
<vehicle id="Auto_14" type="MotorCycle" route="route_19" depart="5" />
<vehicle id="MotorCycle_15" type="MotorCycle" route="route_21" depart="5" />
<vehicle id="Auto_16" type="MotorCycle" route="route_22" depart="5" />
<vehicle id="Auto_17" type="Car" route="route_22" depart="5" />
<vehicle id="Bus_18" type="Auto" route="route_20" depart="6" />
<vehicle id="Bus_19" type="MotorCycle" route="route_20" depart="6" />
<vehicle id="Bus_20" type="MotorCycle" route="route_22" depart="6" />
<vehicle id="Bus_21" type="Car" route="route_22" depart="6" />
<vehicle id="Car_22" type="MotorCycle" route="route_22" depart="7" />
<vehicle id="Bus_23" type="Auto" route="route_8" depart="8" />
<vehicle id="Bus_24" type="MotorCycle" route="route_8" depart="8" />
<vehicle id="Car_25" type="MotorCycle" route="route_11" depart="8" />
<vehicle id="MotorCycle_26" type="Bus" route="route_16" depart="8" />
<vehicle id="MotorCycle_27" type="MotorCycle" route="route_16" depart="8" />
<vehicle id="Car_28" type="Auto" route="route_20" depart="8" />
<vehicle id="Car_29" type="MotorCycle" route="route_20" depart="8" />
<vehicle id="Car_30" type="MotorCycle" route="route_24" depart="8" />
<vehicle id="Auto_31" type="MotorCycle" route="route_19" depart="9" />
<vehicle id="Bus_32" type="MotorCycle" route="route_6" depart="10" />
<vehicle id="Bus_33" type="MotorCycle" route="route_20" depart="10" />
<vehicle id="Bus_34" type="MotorCycle" route="route_22" depart="10" />
<vehicle id="MotorCycle_35" type="MotorCycle" route="route_19" depart="11" />
<vehicle id="Bus_36" type="MotorCycle" route="route_22" depart="11" />
<vehicle id="Auto_37" type="MotorCycle" route="route_18" depart="12" />
<vehicle id="MotorCycle_38" type="MotorCycle" route="route_20" depart="12" />
<vehicle id="MotorCycle_39" type="Car" route="route_20" depart="12" />
<vehicle id="Bus_40" type="MotorCycle" route="route_24" depart="12" />
<vehicle id="Bus_41" type="MotorCycle" route="route_3" depart="13" />
<vehicle id="Bus_42" type="MotorCycle" route="route_19" depart="13" />
<vehicle id="MotorCycle_43" type="MotorCycle" route="route_20" depart="13" />
<vehicle id="Bus_44" type="MotorCycle" route="route_21" depart="13" />
<vehicle id="Auto_45" type="MotorCycle" route="route_24" depart="13" />
<vehicle id="Bus_46" type="MotorCycle" route="route_9" depart="14" />
<vehicle id="Car_47" type="MotorCycle" route="route_20" depart="14" />
<vehicle id="Car_48" type="Bus" route="route_21" depart="14" />
<vehicle id="Car_49" type="Auto" route="route_21" depart="14" />
<vehicle id="Car_50" type="MotorCycle" route="route_21" depart="14" />
<vehicle id="Bus_51" type="MotorCycle" route="route_1" depart="15" />
<vehicle id="Car_52" type="MotorCycle" route="route_21" depart="15" />
<vehicle id="MotorCycle_53" type="MotorCycle" route="route_21" depart="17" />
<vehicle id="MotorCycle_54" type="Car" route="route_21" depart="17" />
<vehicle id="Car_55" type="MotorCycle" route="route_23" depart="17" />
<vehicle id="Car_56" type="Car" route="route_23" depart="17" />
<vehicle id="Auto_57" type="Car" route="route_3" depart="18" />
<vehicle id="Bus_58" type="Auto" route="route_7" depart="18" />
<vehicle id="Bus_59" type="MotorCycle" route="route_7" depart="18" />
<vehicle id="Auto_60" type="MotorCycle" route="route_22" depart="18" />
<vehicle id="Auto_61" type="MotorCycle" route="route_24" depart="18" />
<vehicle id="Auto_62" type="Car" route="route_24" depart="18" />
<vehicle id="Bus_63" type="Auto" route="route_23" depart="19" />
<vehicle id="Bus_64" type="MotorCycle" route="route_23" depart="19" />
<vehicle id="Car_65" type="MotorCycle" route="route_21" depart="20" />
<vehicle id="MotorCycle_66" type="MotorCycle" route="route_23" depart="20" />
<vehicle id="MotorCycle_67" type="MotorCycle" route="route_24" depart="20" />
<vehicle id="MotorCycle_68" type="Car" route="route_24" depart="20" />
<vehicle id="Bus_69" type="MotorCycle" route="route_12" depart="21" />
<vehicle id="Auto_70" type="MotorCycle" route="route_21" depart="21" />
<vehicle id="Car_71" type="MotorCycle" route="route_22" depart="21" />
<vehicle id="Auto_72" type="MotorCycle" route="route_21" depart="22" />
<vehicle id="Auto_73" type="MotorCycle" route="route_22" depart="22" />
<vehicle id="Auto_74" type="MotorCycle" route="route_22" depart="23" />
<vehicle id="MotorCycle_75" type="MotorCycle" route="route_14" depart="24" />
<vehicle id="Auto_76" type="MotorCycle" route="route_18" depart="24" />
<vehicle id="MotorCycle_77" type="MotorCycle" route="route_20" depart="24" />
<vehicle id="MotorCycle_78" type="Car" route="route_20" depart="24" />
<vehicle id="Bus_79" type="MotorCycle" route="route_22" depart="24" />
<vehicle id="Car_80" type="MotorCycle" route="route_23" depart="24" />
<vehicle id="MotorCycle_81" type="MotorCycle" route="route_24" depart="24" />
<vehicle id="MotorCycle_82" type="Car" route="route_24" depart="24" />
<vehicle id="Car_83" type="MotorCycle" route="route_23" depart="25" />
<vehicle id="Car_84" type="Bus" route="route_24" depart="25" />
<vehicle id="MotorCycle_85" type="MotorCycle" route="route_17" depart="26" />
<vehicle id="Auto_86" type="MotorCycle" route="route_22" depart="26" />
<vehicle id="MotorCycle_87" type="MotorCycle" route="route_9" depart="27" />
<vehicle id="Bus_88" type="MotorCycle" route="route_22" depart="27" />
<vehicle id="Auto_89" type="MotorCycle" route="route_23" depart="27" />
<vehicle id="Car_90" type="MotorCycle" route="route_10" depart="28" />
<vehicle id="Car_91" type="Car" route="route_10" depart="28" />
<vehicle id="MotorCycle_92" type="MotorCycle" route="route_21" depart="28" />
<vehicle id="MotorCycle_93" type="Auto" route="route_24" depart="28" />
<vehicle id="MotorCycle_94" type="MotorCycle" route="route_24" depart="28" />
<vehicle id="MotorCycle_95" type="Car" route="route_24" depart="28" />
<vehicle id="MotorCycle_96" type="Bus" route="route_21" depart="29" />
<vehicle id="MotorCycle_97" type="MotorCycle" route="route_21" depart="29" />
<vehicle id="Bus_98" type="MotorCycle" route="route_21" depart="30" />
<vehicle id="Auto_99" type="MotorCycle" route="route_22" depart="30" />
<vehicle id="Bus_100" type="MotorCycle" route="route_21" depart="31" />
<vehicle id="Auto_101" type="MotorCycle" route="route_22" depart="31" />
<vehicle id="Car_102" type="Auto" route="route_23" depart="31" />
<vehicle id="Car_103" type="MotorCycle" route="route_23" depart="31" />
<vehicle id="Bus_104" type="MotorCycle" route="route_20" depart="32" />
<vehicle id="Bus_105" type="Car" route="route_20" depart="32" />
<vehicle id="Auto_106" type="Car" route="route_22" depart="33" />
<vehicle id="Bus_107" type="MotorCycle" route="route_23" depart="33" />
<vehicle id="MotorCycle_108" type="MotorCycle" route="route_11" depart="34" />
<vehicle id="Auto_109" type="MotorCycle" route="route_19" depart="35" />
<vehicle id="Car_110" type="MotorCycle" route="route_20" depart="35" />
<vehicle id="Car_111" type="MotorCycle" route="route_21" depart="35" />
<vehicle id="MotorCycle_112" type="MotorCycle" route="route_22" depart="35" />
<vehicle id="MotorCycle_113" type="Car" route="route_22" depart="35" />
<vehicle id="Auto_114" type="MotorCycle" route="route_8" depart="36" />
<vehicle id="MotorCycle_115" type="MotorCycle" route="route_9" depart="36" />
<vehicle id="Car_116" type="MotorCycle" route="route_11" depart="36" />
<vehicle id="Car_117" type="Car" route="route_11" depart="36" />
<vehicle id="Auto_118" type="MotorCycle" route="route_21" depart="36" />
<vehicle id="Auto_119" type="Car" route="route_21" depart="36" />
<vehicle id="MotorCycle_120" type="MotorCycle" route="route_1" depart="37" />
<vehicle id="Bus_121" type="MotorCycle" route="route_2" depart="37" />
<vehicle id="Bus_122" type="MotorCycle" route="route_7" depart="37" />
<vehicle id="Bus_123" type="Car" route="route_7" depart="37" />
<vehicle id="Auto_124" type="MotorCycle" route="route_20" depart="37" />
<vehicle id="Auto_125" type="MotorCycle" route="route_20" depart="38" />
<vehicle id="Bus_126" type="MotorCycle" route="route_21" depart="38" />
<vehicle id="Car_127" type="MotorCycle" route="route_4" depart="39" />
<vehicle id="Auto_128" type="MotorCycle" route="route_21" depart="39" />
<vehicle id="Auto_129" type="Car" route="route_21" depart="39" />
<vehicle id="Car_130" type="Auto" route="route_19" depart="40" />
<vehicle id="Car_131" type="MotorCycle" route="route_19" depart="40" />
<vehicle id="Auto_132" type="MotorCycle" route="route_21" depart="40" />
<vehicle id="Bus_133" type="Car" route="route_22" depart="40" />
<vehicle id="Auto_134" type="MotorCycle" route="route_23" depart="40" />
<vehicle id="Bus_135" type="MotorCycle" route="route_19" depart="41" />
<vehicle id="Bus_136" type="Car" route="route_19" depart="41" />
<vehicle id="Auto_137" type="MotorCycle" route="route_22" depart="41" />
<vehicle id="Auto_138" type="Bus" route="route_23" depart="41" />
<vehicle id="Auto_139" type="MotorCycle" route="route_23" depart="41" />
<vehicle id="Bus_140" type="MotorCycle" route="route_24" depart="41" />
<vehicle id="Bus_141" type="MotorCycle" route="route_22" depart="42" />
<vehicle id="MotorCycle_142" type="MotorCycle" route="route_23" depart="42" />
<vehicle id="MotorCycle_143" type="Car" route="route_23" depart="42" />
<vehicle id="Bus_144" type="MotorCycle" route="route_24" depart="42" />
<vehicle id="Bus_145" type="Auto" route="route_3" depart="43" />
<vehicle id="Bus_146" type="MotorCycle" route="route_3" depart="43" />
<vehicle id="MotorCycle_147" type="MotorCycle" route="route_23" depart="43" />
<vehicle id="MotorCycle_148" type="MotorCycle" route="route_24" depart="43" />
<vehicle id="Auto_149" type="Auto" route="route_5" depart="44" />
<vehicle id="Auto_150" type="MotorCycle" route="route_5" depart="44" />
<vehicle id="Auto_151" type="Car" route="route_5" depart="44" />
<vehicle id="Bus_152" type="MotorCycle" route="route_21" depart="45" />
<vehicle id="Bus_153" type="MotorCycle" route="route_23" depart="45" />
<vehicle id="Car_154" type="MotorCycle" route="route_24" depart="46" />
<vehicle id="Auto_155" type="MotorCycle" route="route_20" depart="47" />
<vehicle id="MotorCycle_156" type="MotorCycle" route="route_21" depart="47" />
<vehicle id="Auto_157" type="MotorCycle" route="route_24" depart="47" />
<vehicle id="Bus_158" type="MotorCycle" route="route_1" depart="48" />
<vehicle id="Auto_159" type="MotorCycle" route="route_2" depart="48" />
<vehicle id="Bus_160" type="MotorCycle" route="route_7" depart="48" />
<vehicle id="Bus_161" type="Car" route="route_7" depart="48" />
<vehicle id="Auto_162" type="MotorCycle" route="route_19" depart="48" />
<vehicle id="Car_163" type="MotorCycle" route="route_23" depart="48" />
<vehicle id="Auto_164" type="MotorCycle" route="route_24" depart="48" />
<vehicle id="Auto_165" type="Car" route="route_24" depart="48" />
<vehicle id="Auto_166" type="Auto" route="route_3" depart="49" />
<vehicle id="Auto_167" type="MotorCycle" route="route_3" depart="49" />
<vehicle id="Auto_168" type="Bus" route="route_19" depart="49" />
<vehicle id="Auto_169" type="MotorCycle" route="route_19" depart="49" />
<vehicle id="Auto_170" type="MotorCycle" route="route_20" depart="49" />
<vehicle id="Auto_171" type="MotorCycle" route="route_21" depart="49" />
<vehicle id="MotorCycle_172" type="MotorCycle" route="route_23" depart="49" />
<vehicle id="Bus_173" type="MotorCycle" route="route_22" depart="50" />
<vehicle id="Bus_174" type="Car" route="route_22" depart="50" />
<vehicle id="Bus_175" type="MotorCycle" route="route_23" depart="51" />
<vehicle id="Bus_176" type="MotorCycle" route="route_24" depart="52" />
<vehicle id="Car_177" type="Bus" route="route_20" depart="53" />
<vehicle id="Car_178" type="MotorCycle" route="route_20" depart="53" />
<vehicle id="Bus_179" type="MotorCycle" route="route_22" depart="53" />
<vehicle id="MotorCycle_180" type="MotorCycle" route="route_24" depart="53" />
<vehicle id="Bus_181" type="Car" route="route_23" depart="54" />
<vehicle id="MotorCycle_182" type="MotorCycle" route="route_23" depart="55" />
<vehicle id="MotorCycle_183" type="MotorCycle" route="route_19" depart="56" />
<vehicle id="Bus_184" type="MotorCycle" route="route_22" depart="56" />
<vehicle id="Bus_185" type="Car" route="route_4" depart="57" />
<vehicle id="Car_186" type="MotorCycle" route="route_21" depart="57" />
<vehicle id="Bus_187" type="MotorCycle" route="route_22" depart="57" />
<vehicle id="Auto_188" type="MotorCycle" route="route_22" depart="58" />
<vehicle id="Bus_189" type="MotorCycle" route="route_9" depart="59" />
<vehicle id="Car_190" type="MotorCycle" route="route_19" depart="59" />
<vehicle id="Auto_191" type="MotorCycle" route="route_22" depart="59" />
<vehicle id="Auto_192" type="Car" route="route_22" depart="59" />
<vehicle id="MotorCycle_193" type="MotorCycle" route="route_21" depart="60" />
<vehicle id="Auto_194" type="MotorCycle" route="route_14" depart="61" />
<vehicle id="Auto_195" type="MotorCycle" route="route_20" depart="61" />
<vehicle id="Auto_196" type="MotorCycle" route="route_21" depart="61" />
<vehicle id="MotorCycle_197" type="MotorCycle" route="route_2" depart="62" />
<vehicle id="Bus_198" type="MotorCycle" route="route_3" depart="62" />
<vehicle id="Car_199" type="Auto" route="route_22" depart="62" />
<vehicle id="Car_200" type="MotorCycle" route="route_22" depart="62" />
<vehicle id="Auto_201" type="Bus" route="route_23" depart="62" />
<vehicle id="MotorCycle_202" type="MotorCycle" route="route_7" depart="63" />
<vehicle id="Car_203" type="MotorCycle" route="route_22" depart="63" />
<vehicle id="Car_204" type="MotorCycle" route="route_23" depart="63" />
<vehicle id="Car_205" type="Car" route="route_23" depart="63" />
<vehicle id="Auto_206" type="MotorCycle" route="route_2" depart="65" />
<vehicle id="Auto_207" type="Car" route="route_2" depart="65" />
<vehicle id="MotorCycle_208" type="MotorCycle" route="route_21" depart="65" />
<vehicle id="Bus_209" type="MotorCycle" route="route_22" depart="65" />
<vehicle id="Bus_210" type="Bus" route="route_20" depart="66" />
<vehicle id="Bus_211" type="MotorCycle" route="route_20" depart="66" />
<vehicle id="Bus_212" type="MotorCycle" route="route_23" depart="66" />
<vehicle id="Bus_213" type="Car" route="route_23" depart="66" />
<vehicle id="Car_214" type="MotorCycle" route="route_9" depart="67" />
<vehicle id="Car_215" type="Car" route="route_9" depart="67" />
<vehicle id="Auto_216" type="MotorCycle" route="route_21" depart="67" />
<vehicle id="Car_217" type="Auto" route="route_19" depart="68" />
<vehicle id="Car_218" type="MotorCycle" route="route_19" depart="68" />
<vehicle id="Car_219" type="Car" route="route_19" depart="68" />
<vehicle id="Car_220" type="Car" route="route_20" depart="68" />
<vehicle id="Auto_221" type="MotorCycle" route="route_22" depart="68" />
<vehicle id="Bus_222" type="MotorCycle" route="route_21" depart="69" />
<vehicle id="Bus_223" type="MotorCycle" route="route_22" depart="69" />
<vehicle id="Auto_224" type="MotorCycle" route="route_23" depart="69" />
<vehicle id="Bus_225" type="Auto" route="route_24" depart="69" />
<vehicle id="Bus_226" type="MotorCycle" route="route_24" depart="69" />
<vehicle id="MotorCycle_227" type="MotorCycle" route="route_5" depart="70" />
<vehicle id="Bus_228" type="MotorCycle" route="route_19" depart="70" />
<vehicle id="MotorCycle_229" type="Car" route="route_21" depart="70" />
<vehicle id="Auto_230" type="MotorCycle" route="route_24" depart="70" />
<vehicle id="MotorCycle_231" type="Auto" route="route_4" depart="72" />
<vehicle id="MotorCycle_232" type="MotorCycle" route="route_4" depart="72" />
<vehicle id="Car_233" type="MotorCycle" route="route_15" depart="72" />
<vehicle id="MotorCycle_234" type="MotorCycle" route="route_22" depart="72" />
<vehicle id="Auto_235" type="MotorCycle" route="route_24" depart="72" />
<vehicle id="Car_236" type="MotorCycle" route="route_8" depart="73" />
<vehicle id="Bus_237" type="MotorCycle" route="route_24" depart="73" />
<vehicle id="Bus_238" type="Car" route="route_24" depart="73" />
<vehicle id="Car_239" type="MotorCycle" route="route_20" depart="75" />
<vehicle id="Bus_240" type="MotorCycle" route="route_7" depart="76" />
<vehicle id="Car_241" type="MotorCycle" route="route_20" depart="76" />
<vehicle id="MotorCycle_242" type="MotorCycle" route="route_21" depart="76" />
<vehicle id="Bus_243" type="MotorCycle" route="route_21" depart="77" />
<vehicle id="MotorCycle_244" type="MotorCycle" route="route_22" depart="77" />
<vehicle id="MotorCycle_245" type="MotorCycle" route="route_24" depart="77" />
<vehicle id="MotorCycle_246" type="MotorCycle" route="route_19" depart="78" />
<vehicle id="Auto_247" type="MotorCycle" route="route_23" depart="78" />
<vehicle id="MotorCycle_248" type="Auto" route="route_21" depart="79" />
<vehicle id="MotorCycle_249" type="MotorCycle" route="route_21" depart="79" />
<vehicle id="MotorCycle_250" type="Car" route="route_21" depart="79" />
<vehicle id="Car_251" type="MotorCycle" route="route_22" depart="79" />
<vehicle id="Auto_252" type="MotorCycle" route="route_4" depart="80" />
<vehicle id="Car_253" type="Auto" route="route_22" depart="81" />
<vehicle id="Bus_254" type="MotorCycle" route="route_23" depart="81" />
<vehicle id="Bus_255" type="Car" route="route_23" depart="81" />
<vehicle id="Auto_256" type="MotorCycle" route="route_2" depart="82" />
<vehicle id="Bus_257" type="MotorCycle" route="route_21" depart="82" />
<vehicle id="Car_258" type="MotorCycle" route="route_11" depart="83" />
<vehicle id="Auto_259" type="MotorCycle" route="route_22" depart="83" />
<vehicle id="Car_260" type="Bus" route="route_24" depart="83" />
<vehicle id="Car_261" type="MotorCycle" route="route_24" depart="83" />
<vehicle id="MotorCycle_262" type="MotorCycle" route="route_10" depart="84" />
<vehicle id="Auto_263" type="MotorCycle" route="route_20" depart="84" />
<vehicle id="MotorCycle_264" type="MotorCycle" route="route_21" depart="84" />
<vehicle id="MotorCycle_265" type="Car" route="route_21" depart="84" />
<vehicle id="Car_266" type="Auto" route="route_22" depart="84" />
<vehicle id="Car_267" type="MotorCycle" route="route_22" depart="84" />
<vehicle id="MotorCycle_268" type="Auto" route="route_5" depart="85" />
<vehicle id="MotorCycle_269" type="MotorCycle" route="route_5" depart="85" />
<vehicle id="Car_270" type="MotorCycle" route="route_21" depart="85" />
<vehicle id="Bus_271" type="MotorCycle" route="route_4" depart="86" />
<vehicle id="Auto_272" type="Bus" route="route_20" depart="86" />
<vehicle id="Auto_273" type="MotorCycle" route="route_20" depart="86" />
<vehicle id="Auto_274" type="Car" route="route_20" depart="86" />
<vehicle id="Bus_275" type="MotorCycle" route="route_24" depart="86" />
<vehicle id="Bus_276" type="Car" route="route_24" depart="86" />
<vehicle id="Car_277" type="MotorCycle" route="route_19" depart="88" />
<vehicle id="Bus_278" type="MotorCycle" route="route_21" depart="88" />
<vehicle id="Auto_279" type="MotorCycle" route="route_22" depart="88" />
<vehicle id="MotorCycle_280" type="MotorCycle" route="route_24" depart="88" />
<vehicle id="Car_281" type="MotorCycle" route="route_20" depart="90" />
<vehicle id="Auto_282" type="MotorCycle" route="route_22" depart="90" />
<vehicle id="MotorCycle_283" type="MotorCycle" route="route_3" depart="91" />
<vehicle id="Car_284" type="MotorCycle" route="route_11" depart="91" />
<vehicle id="Car_285" type="MotorCycle" route="route_16" depart="91" />
<vehicle id="Car_286" type="Car" route="route_16" depart="91" />
<vehicle id="Auto_287" type="MotorCycle" route="route_19" depart="91" />
<vehicle id="Bus_288" type="MotorCycle" route="route_22" depart="91" />
<vehicle id="MotorCycle_289" type="MotorCycle" route="route_21" depart="92" />
<vehicle id="Auto_290" type="MotorCycle" route="route_10" depart="93" />
<vehicle id="Bus_291" type="MotorCycle" route="route_12" depart="93" />
<vehicle id="Bus_292" type="MotorCycle" route="route_21" depart="93" />
<vehicle id="Car_293" type="MotorCycle" route="route_24" depart="93" />
<vehicle id="Auto_294" type="MotorCycle" route="route_20" depart="94" />
<vehicle id="Car_295" type="Auto" route="route_21" depart="94" />
<vehicle id="Car_296" type="MotorCycle" route="route_21" depart="94" />
<vehicle id="Car_297" type="MotorCycle" route="route_22" depart="94" />
<vehicle id="Bus_298" type="MotorCycle" route="route_20" depart="95" />
<vehicle id="Bus_299" type="MotorCycle" route="route_21" depart="95" />
<vehicle id="Auto_300" type="Auto" route="route_24" depart="95" />
<vehicle id="Auto_301" type="MotorCycle" route="route_24" depart="95" />
<vehicle id="Auto_302" type="Car" route="route_24" depart="95" />
<vehicle id="Bus_303" type="MotorCycle" route="route_2" depart="96" />
<vehicle id="Car_304" type="MotorCycle" route="route_4" depart="96" />
<vehicle id="Bus_305" type="MotorCycle" route="route_19" depart="96" />
<vehicle id="Auto_306" type="MotorCycle" route="route_24" depart="96" />
<vehicle id="Bus_307" type="MotorCycle" route="route_3" depart="97" />
<vehicle id="Car_308" type="Car" route="route_13" depart="97" />
<vehicle id="Car_309" type="MotorCycle" route="route_20" depart="97" />
<vehicle id="Car_310" type="Car" route="route_20" depart="97" />
<vehicle id="MotorCycle_311" type="MotorCycle" route="route_21" depart="97" />
<vehicle id="MotorCycle_312" type="Car" route="route_21" depart="97" />
<vehicle id="MotorCycle_313" type="MotorCycle" route="route_22" depart="98" />
<vehicle id="Bus_314" type="MotorCycle" route="route_21" depart="99" />
<vehicle id="Bus_315" type="Car" route="route_21" depart="99" />
<vehicle id="Bus_316" type="Car" route="route_19" depart="100" />
<vehicle id="Bus_317" type="MotorCycle" route="route_24" depart="100" />
<vehicle id="Car_318" type="MotorCycle" route="route_21" depart="101" />
<vehicle id="Bus_319" type="MotorCycle" route="route_22" depart="101" />
<vehicle id="Bus_320" type="Car" route="route_22" depart="101" />
<vehicle id="MotorCycle_321" type="MotorCycle" route="route_21" depart="102" />
<vehicle id="Bus_322" type="Car" route="route_13" depart="103" />
<vehicle id="MotorCycle_323" type="MotorCycle" route="route_19" depart="103" />
<vehicle id="Auto_324" type="MotorCycle" route="route_20" depart="103" />
<vehicle id="Car_325" type="MotorCycle" route="route_23" depart="103" />
<vehicle id="Bus_326" type="MotorCycle" route="route_24" depart="103" />
<vehicle id="MotorCycle_327" type="MotorCycle" route="route_22" depart="104" />
<vehicle id="Auto_328" type="MotorCycle" route="route_23" depart="104" />
<vehicle id="Auto_329" type="MotorCycle" route="route_13" depart="105" />
<vehicle id="Bus_330" type="MotorCycle" route="route_17" depart="105" />
<vehicle id="Car_331" type="MotorCycle" route="route_19" depart="105" />
<vehicle id="Car_332" type="Car" route="route_19" depart="105" />
<vehicle id="MotorCycle_333" type="MotorCycle" route="route_21" depart="105" />
<vehicle id="Auto_334" type="MotorCycle" route="route_23" depart="105" />
<vehicle id="Auto_335" type="Car" route="route_23" depart="105" />
<vehicle id="MotorCycle_336" type="MotorCycle" route="route_19" depart="106" />
<vehicle id="MotorCycle_337" type="Bus" route="route_20" depart="106" />
<vehicle id="MotorCycle_338" type="MotorCycle" route="route_20" depart="106" />
<vehicle id="Auto_339" type="MotorCycle" route="route_21" depart="106" />
<vehicle id="Auto_340" type="MotorCycle" route="route_23" depart="106" />
<vehicle id="Car_341" type="MotorCycle" route="route_10" depart="107" />
<vehicle id="Bus_342" type="Auto" route="route_14" depart="107" />
<vehicle id="Bus_343" type="MotorCycle" route="route_14" depart="107" />
<vehicle id="Auto_344" type="MotorCycle" route="route_15" depart="107" />
<vehicle id="Car_345" type="MotorCycle" route="route_21" depart="107" />
<vehicle id="Auto_346" type="MotorCycle" route="route_24" depart="107" />
<vehicle id="Auto_347" type="Car" route="route_24" depart="107" />
<vehicle id="Car_348" type="Auto" route="route_24" depart="108" />
<vehicle id="Car_349" type="MotorCycle" route="route_24" depart="108" />
<vehicle id="Auto_350" type="MotorCycle" route="route_19" depart="109" />
<vehicle id="Bus_351" type="MotorCycle" route="route_23" depart="109" />
<vehicle id="Bus_352" type="Car" route="route_23" depart="109" />
<vehicle id="Car_353" type="MotorCycle" route="route_5" depart="111" />
<vehicle id="Car_354" type="MotorCycle" route="route_18" depart="111" />
<vehicle id="Car_355" type="Car" route="route_18" depart="111" />
<vehicle id="Bus_356" type="Auto" route="route_19" depart="111" />
<vehicle id="Bus_357" type="MotorCycle" route="route_19" depart="111" />
<vehicle id="Bus_358" type="MotorCycle" route="route_1" depart="112" />
<vehicle id="MotorCycle_359" type="MotorCycle" route="route_4" depart="112" />
<vehicle id="Bus_360" type="MotorCycle" route="route_22" depart="112" />
<vehicle id="Bus_361" type="MotorCycle" route="route_23" depart="112" />
<vehicle id="Bus_362" type="Car" route="route_23" depart="112" />
<vehicle id="Car_363" type="MotorCycle" route="route_3" depart="113" />
<vehicle id="Car_364" type="Car" route="route_3" depart="113" />
<vehicle id="MotorCycle_365" type="MotorCycle" route="route_19" depart="113" />
<vehicle id="MotorCycle_366" type="Car" route="route_19" depart="113" />
<vehicle id="Car_367" type="MotorCycle" route="route_21" depart="113" />
<vehicle id="Car_368" type="Car" route="route_21" depart="113" />
<vehicle id="Car_369" type="MotorCycle" route="route_22" depart="113" />
<vehicle id="Bus_370" type="MotorCycle" route="route_23" depart="113" />
<vehicle id="Car_371" type="MotorCycle" route="route_21" depart="114" />
<vehicle id="Car_372" type="Car" route="route_22" depart="114" />
<vehicle id="Car_373" type="MotorCycle" route="route_6" depart="115" />
<vehicle id="Car_374" type="Car" route="route_6" depart="115" />
<vehicle id="Bus_375" type="MotorCycle" route="route_7" depart="115" />
<vehicle id="MotorCycle_376" type="MotorCycle" route="route_22" depart="115" />
<vehicle id="Car_377" type="MotorCycle" route="route_23" depart="115" />