<routes>
<vType id="Bus" accel="0.6" decel="3.5" sigma="0.5" length="10.1" minGap="1.0" maxSpeed="16.67" carFollowModel="Wiedemann" guiShape="bus" width="2.45" latAlignment="left" laneChangeModel="SL2015" lcStrategic="0.5" lcCooperative="0.0"/>
<vType id="Auto" accel="0.7" decel="4.5" sigma="0.5" length="2.6" minGap="0.3" maxSpeed="16" carFollowModel="Wiedemann" guiShape="passenger/sedan" width="1.25" latAlignment="left" laneChangeModel="SL2015" lcStrategic="0.5" lcCooperative="0.0" />
<vType id="MotorCycle" accel="0.9" decel="3.5" sigma="0.5" length="1.85" minGap="0.15"  carFollowModel="Wiedemann" maxSpeed="17" guiShape="motorcycle" width="0.7" latAlignment="left" laneChangeModel="SL2015" lcStrategic="0.5" lcCooperative="0.0"/>
<vType id="Car" accel="0.8" decel="4.5" sigma="0.5" length="3.6" minGap="0.5" maxSpeed="40" carFollowModel="Wiedemann" guiShape="passenger" width="1.5" latAlignment="left" laneChangeModel="SL2015" lcStrategic="0.5" lcCooperative="0.0"/>
<vType id="emergency" accel="2.8" decel="5.5" sigma="0.5" length="3.6" minGap="0.5" maxSpeed="120.6" carFollowModel="Wiedemann" guiShape="emergency" width="1.5" latAlignment="left" laneChangeModel="SL2015" lcStrategic="0.5" lcCooperative="0.0" vClass="emergency" speedFactor="1.9" jmDriveAfterRedTime="300" jmDriveAfterRedSpeed="5.56">
<param key="has.bluelight.device" value="true"/>
<param key="has.fcd.device" value="true"/> 
</vType>
<route id="route_0" edges="1i 52i gneE0 gneE2" />
<route id="route_1" edges="-gneE2 -gneE0 52o 2i 1o" />
        <route id="route_2" edges="4i 3o" />
        <route id="route_3" edges="3i 4o" />
        <route id="route_4" edges="-gneE1 gneE3" /> 
        <route id="route_5" edges="4i 1o" />
        <route id="route_6" edges="4i 2o 52i gneE0 gneE1" />
        <route id="route_7" edges="2i 4o" />
        <route id="route_8" edges="2i 3o" />
        <route id="route_9" edges="-gneE1 gneE3" />
        <route id="route_10" edges="3i 2o 52i gneE0 gneE3" />
        <route id="route_11" edges="3i 1o" />
        <route id="route_12" edges="-gneE1 -gneE0 52o 2i 4o" />
        <route id="route_13" edges="-gneE1 gneE2" />
        <route id="route_14" edges="-gneE2 gneE1" />
        <route id="route_15" edges="-gneE2 gneE3" />
        <route id="route_16" edges="-gneE3 -gneE0 52o 2i 3o" />
        <route id="route_17" edges="-gneE3 gneE2" />
        <route id="route_18" edges="gneE0 gneE3" />
        <route id="route_19" edges="gneE0 gneE1" />
        <route id="route_20" edges="1i 2o 52i gneE0 gneE2 -gneE4 gneE5" />
        <route id="route_21" edges="-gneE5 gneE4 -gneE2 -gneE0 52o 2i 1o" />
        <route id="route_22" edges="-gneE5 gneE4 -gneE2 -gneE0 52o 2i 3o" />
        <route id="route_23" edges="1i 2o 52i gneE0 gneE2 -gneE4 gneE7" />

	<route id="route_24" edges="gneE0"/>
<vehicle id="emergency_0" type="emergency" route="route_21" depart="0" />
<vehicle id="Bus_0" type="Bus" route="route_21" depart="0" />
<vehicle id="Car_0" type="Car" route="route_19" depart="0" />
<vehicle id="MotorCycle_1" type="Bus" route="route_9" depart="1" />
<vehicle id="MotorCycle_2" type="MotorCycle" route="route_23" depart="1" />
<vehicle id="MotorCycle_3" type="Car" route="route_23" depart="1" />
<vehicle id="Bus_4" type="MotorCycle" route="route_4" depart="2" />
<vehicle id="Bus_5" type="MotorCycle" route="route_18" depart="2" />
<vehicle id="Bus_6" type="MotorCycle" route="route_22" depart="2" />
<vehicle id="Bus_7" type="MotorCycle" route="route_11" depart="3" />
<vehicle id="MotorCycle_8" type="MotorCycle" route="route_21" depart="3" />
<vehicle id="Auto_9" type="MotorCycle" route="route_23" depart="3" />
<vehicle id="Auto_10" type="Bus" route="route_24" depart="3" />
<vehicle id="Car_11" type="MotorCycle" route="route_6" depart="4" />
<vehicle id="Bus_12" type="MotorCycle" route="route_21" depart="4" />
<vehicle id="Auto_13" type="Car" route="route_22" depart="4" />
<vehicle id="Bus_14" type="MotorCycle" route="route_23" depart="4" />
<vehicle id="Bus_15" type="MotorCycle" route="route_21" depart="5" />
<vehicle id="Car_16" type="MotorCycle" route="route_22" depart="5" />
<vehicle id="Car_17" type="MotorCycle" route="route_23" depart="5" />
<vehicle id="MotorCycle_18" type="MotorCycle" route="route_21" depart="6" />
<vehicle id="Car_19" type="MotorCycle" route="route_23" depart="6" />
<vehicle id="Bus_20" type="MotorCycle" route="route_20" depart="7" />
<vehicle id="MotorCycle_21" type="MotorCycle" route="route_21" depart="7" />
<vehicle id="Auto_22" type="MotorCycle" route="route_24" depart="7" />
<vehicle id="Auto_23" type="Car" route="route_24" depart="7" />
<vehicle id="Bus_24" type="MotorCycle" route="route_8" depart="8" />
<vehicle id="Auto_25" type="MotorCycle" route="route_22" depart="9" />
<vehicle id="Auto_26" type="Car" route="route_22" depart="9" />
<vehicle id="Car_27" type="MotorCycle" route="route_24" depart="9" />
<vehicle id="Bus_28" type="MotorCycle" route="route_3" depart="10" />
<vehicle id="Bus_29" type="MotorCycle" route="route_21" depart="10" />
<vehicle id="Auto_30" type="MotorCycle" route="route_22" depart="11" />
<vehicle id="Car_31" type="MotorCycle" route="route_23" depart="11" />
<vehicle id="Car_32" type="MotorCycle" route="route_24" depart="11" />
<vehicle id="MotorCycle_33" type="MotorCycle" route="route_11" depart="12" />
<vehicle id="MotorCycle_34" type="Car" route="route_11" depart="12" />
<vehicle id="Auto_35" type="Bus" route="route_16" depart="12" />
<vehicle id="Auto_36" type="MotorCycle" route="route_16" depart="12" />
<vehicle id="Car_37" type="MotorCycle" route="route_19" depart="12" />
<vehicle id="Car_38" type="Car" route="route_19" depart="12" />
<vehicle id="Auto_39" type="Car" route="route_22" depart="12" />
<vehicle id="Auto_40" type="MotorCycle" route="route_21" depart="13" />
<vehicle id="MotorCycle_41" type="Bus" route="route_22" depart="13" />
<vehicle id="MotorCycle_42" type="MotorCycle" route="route_22" depart="13" />
<vehicle id="Auto_43" type="MotorCycle" route="route_11" depart="14" />
<vehicle id="Auto_44" type="MotorCycle" route="route_19" depart="14" />
<vehicle id="MotorCycle_45" type="MotorCycle" route="route_21" depart="14" />
<vehicle id="Auto_46" type="MotorCycle" route="route_5" depart="15" />
<vehicle id="Auto_47" type="MotorCycle" route="route_21" depart="15" />
<vehicle id="Auto_48" type="MotorCycle" route="route_23" depart="15" />
<vehicle id="Auto_49" type="Car" route="route_23" depart="15" />
<vehicle id="Auto_50" type="MotorCycle" route="route_10" depart="16" />
<vehicle id="Car_51" type="MotorCycle" route="route_20" depart="16" />
<vehicle id="Bus_52" type="MotorCycle" route="route_22" depart="17" />
<vehicle id="Car_53" type="MotorCycle" route="route_24" depart="17" />
<vehicle id="Bus_54" type="MotorCycle" route="route_1" depart="18" />
<vehicle id="Auto_55" type="MotorCycle" route="route_21" depart="18" />
<vehicle id="Auto_56" type="Car" route="route_21" depart="18" />
<vehicle id="Auto_57" type="MotorCycle" route="route_8" depart="19" />
<vehicle id="Bus_58" type="MotorCycle" route="route_9" depart="19" />
<vehicle id="Bus_59" type="MotorCycle" route="route_19" depart="20" />
<vehicle id="Bus_60" type="Car" route="route_19" depart="20" />
<vehicle id="Bus_61" type="MotorCycle" route="route_21" depart="20" />
<vehicle id="Car_62" type="MotorCycle" route="route_22" depart="20" />
<vehicle id="Car_63" type="Car" route="route_22" depart="20" />
<vehicle id="Auto_64" type="MotorCycle" route="route_23" depart="20" />
<vehicle id="Car_65" type="MotorCycle" route="route_2" depart="21" />
<vehicle id="Car_66" type="Car" route="route_2" depart="21" />
<vehicle id="Bus_67" type="MotorCycle" route="route_9" depart="21" />
<vehicle id="Auto_68" type="MotorCycle" route="route_10" depart="21" />
<vehicle id="Car_69" type="MotorCycle" route="route_19" depart="21" />
<vehicle id="Bus_70" type="MotorCycle" route="route_22" depart="22" />
<vehicle id="Car_71" type="Bus" route="route_21" depart="23" />
<vehicle id="Car_72" type="MotorCycle" route="route_21" depart="23" />
<vehicle id="Car_73" type="Car" route="route_21" depart="23" />
<vehicle id="MotorCycle_74" type="MotorCycle" route="route_23" depart="23" />
<vehicle id="Bus_75" type="MotorCycle" route="route_9" depart="24" />
<vehicle id="Car_76" type="MotorCycle" route="route_21" depart="24" />
<vehicle id="Car_77" type="MotorCycle" route="route_22" depart="24" />
<vehicle id="Auto_78" type="MotorCycle" route="route_20" depart="25" />
<vehicle id="Car_79" type="MotorCycle" route="route_21" depart="25" />
<vehicle id="Bus_80" type="MotorCycle" route="route_22" depart="25" />
<vehicle id="Car_81" type="Bus" route="route_20" depart="26" />
<vehicle id="Car_82" type="MotorCycle" route="route_20" depart="26" />
<vehicle id="MotorCycle_83" type="MotorCycle" route="route_21" depart="26" />
<vehicle id="MotorCycle_84" type="Car" route="route_21" depart="26" />
<vehicle id="Auto_85" type="MotorCycle" route="route_19" depart="27" />
<vehicle id="Bus_86" type="MotorCycle" route="route_8" depart="28" />
<vehicle id="Bus_87" type="Car" route="route_8" depart="28" />
<vehicle id="MotorCycle_88" type="MotorCycle" route="route_21" depart="28" />
<vehicle id="MotorCycle_89" type="Car" route="route_21" depart="28" />
<vehicle id="MotorCycle_90" type="MotorCycle" route="route_23" depart="28" />
<vehicle id="MotorCycle_91" type="MotorCycle" route="route_21" depart="29" />
<vehicle id="Bus_92" type="MotorCycle" route="route_24" depart="29" />
<vehicle id="MotorCycle_93" type="MotorCycle" route="route_20" depart="30" />
<vehicle id="Car_94" type="Auto" route="route_22" depart="30" />
<vehicle id="MotorCycle_95" type="MotorCycle" route="route_23" depart="30" />
<vehicle id="MotorCycle_96" type="MotorCycle" route="route_21" depart="31" />
<vehicle id="Bus_97" type="MotorCycle" route="route_23" depart="31" />
<vehicle id="Car_98" type="MotorCycle" route="route_21" depart="32" />
<vehicle id="MotorCycle_99" type="MotorCycle" route="route_1" depart="33" />
<vehicle id="Bus_100" type="MotorCycle" route="route_3" depart="33" />
<vehicle id="Auto_101" type="MotorCycle" route="route_22" depart="33" />
<vehicle id="Auto_102" type="Car" route="route_22" depart="33" />
<vehicle id="MotorCycle_103" type="MotorCycle" route="route_23" depart="33" />
<vehicle id="Bus_104" type="MotorCycle" route="route_21" depart="34" />
<vehicle id="Bus_105" type="MotorCycle" route="route_11" depart="35" />
<vehicle id="MotorCycle_106" type="MotorCycle" route="route_21" depart="35" />
<vehicle id="Car_107" type="MotorCycle" route="route_19" depart="36" />
<vehicle id="Car_108" type="MotorCycle" route="route_23" depart="36" />
<vehicle id="Bus_109" type="MotorCycle" route="route_24" depart="36" />
<vehicle id="Bus_110" type="MotorCycle" route="route_19" depart="37" />
<vehicle id="Bus_111" type="Car" route="route_19" depart="37" />
<vehicle id="Car_112" type="MotorCycle" route="route_20" depart="37" />
<vehicle id="Auto_113" type="MotorCycle" route="route_23" depart="37" />
<vehicle id="Auto_114" type="Car" route="route_23" depart="37" />
<vehicle id="Auto_115" type="MotorCycle" route="route_10" depart="38" />
<vehicle id="Auto_116" type="MotorCycle" route="route_21" depart="38" />
<vehicle id="Car_117" type="Car" route="route_22" depart="38" />
<vehicle id="Car_118" type="MotorCycle" route="route_23" depart="38" />
<vehicle id="MotorCycle_119" type="MotorCycle" route="route_24" depart="38" />
<vehicle id="Car_120" type="MotorCycle" route="route_1" depart="39" />
<vehicle id="Auto_121" type="MotorCycle" route="route_23" depart="39" />
<vehicle id="Bus_122" type="MotorCycle" route="route_24" depart="40" />
<vehicle id="Bus_123" type="Car" route="route_24" depart="40" />
<vehicle id="Car_124" type="MotorCycle" route="route_20" depart="42" />
<vehicle id="Car_125" type="Auto" route="route_22" depart="42" />
<vehicle id="Car_126" type="MotorCycle" route="route_22" depart="42" />
<vehicle id="Car_127" type="MotorCycle" route="route_23" depart="42" />
<vehicle id="Car_128" type="MotorCycle" route="route_2" depart="43" />
<vehicle id="Car_129" type="Car" route="route_2" depart="43" />
<vehicle id="MotorCycle_130" type="Bus" route="route_4" depart="43" />
<vehicle id="MotorCycle_131" type="MotorCycle" route="route_4" depart="43" />
<vehicle id="MotorCycle_132" type="MotorCycle" route="route_20" depart="43" />
<vehicle id="Car_133" type="MotorCycle" route="route_21" depart="43" />
<vehicle id="Bus_134" type="Auto" route="route_22" depart="43" />
<vehicle id="Bus_135" type="MotorCycle" route="route_22" depart="43" />
<vehicle id="Car_136" type="MotorCycle" route="route_3" depart="44" />
<vehicle id="MotorCycle_137" type="MotorCycle" route="route_19" depart="44" />
<vehicle id="Bus_138" type="MotorCycle" route="route_20" depart="45" />
<vehicle id="Auto_139" type="MotorCycle" route="route_6" depart="46" />
<vehicle id="Auto_140" type="MotorCycle" route="route_19" depart="46" />
<vehicle id="Auto_141" type="Car" route="route_19" depart="46" />
<vehicle id="Car_142" type="MotorCycle" route="route_22" depart="46" />
<vehicle id="Bus_143" type="MotorCycle" route="route_2" depart="47" />
<vehicle id="Bus_144" type="Car" route="route_2" depart="47" />
<vehicle id="Auto_145" type="MotorCycle" route="route_5" depart="47" />
<vehicle id="Bus_146" type="MotorCycle" route="route_21" depart="47" />
<vehicle id="MotorCycle_147" type="MotorCycle" route="route_22" depart="47" />
<vehicle id="Bus_148" type="Auto" route="route_4" depart="48" />
<vehicle id="Bus_149" type="MotorCycle" route="route_4" depart="48" />
<vehicle id="Auto_150" type="MotorCycle" route="route_8" depart="48" />
<vehicle id="Bus_151" type="MotorCycle" route="route_21" depart="48" />
<vehicle id="Car_152" type="MotorCycle" route="route_13" depart="50" />
<vehicle id="MotorCycle_153" type="MotorCycle" route="route_21" depart="50" />
<vehicle id="Auto_154" type="MotorCycle" route="route_22" depart="50" />
<vehicle id="Auto_155" type="MotorCycle" route="route_17" depart="52" />
<vehicle id="Bus_156" type="MotorCycle" route="route_21" depart="52" />
<vehicle id="Bus_157" type="MotorCycle" route="route_24" depart="52" />
<vehicle id="MotorCycle_158" type="MotorCycle" route="route_23" depart="53" />
<vehicle id="MotorCycle_159" type="MotorCycle" route="route_21" depart="54" />
<vehicle id="MotorCycle_160" type="MotorCycle" route="route_22" depart="54" />
<vehicle id="Auto_161" type="MotorCycle" route="route_12" depart="55" />
<vehicle id="Auto_162" type="Car" route="route_12" depart="55" />
<vehicle id="Auto_163" type="MotorCycle" route="route_19" depart="56" />
<vehicle id="Auto_164" type="Car" route="route_19" depart="56" />
<vehicle id="Bus_165" type="MotorCycle" route="route_20" depart="56" />
<vehicle id="Auto_166" type="MotorCycle" route="route_22" depart="56" />
<vehicle id="Car_167" type="MotorCycle" route="route_4" depart="57" />
<vehicle id="MotorCycle_168" type="Auto" route="route_20" depart="57" />
<vehicle id="MotorCycle_169" type="MotorCycle" route="route_20" depart="57" />
<vehicle id="Car_170" type="MotorCycle" route="route_21" depart="57" />
<vehicle id="Bus_171" type="MotorCycle" route="route_23" depart="57" />
<vehicle id="Car_172" type="MotorCycle" route="route_21" depart="58" />
<vehicle id="Bus_173" type="MotorCycle" route="route_22" depart="58" />
<vehicle id="Car_174" type="MotorCycle" route="route_22" depart="59" />
<vehicle id="Car_175" type="MotorCycle" route="route_24" depart="59" />
<vehicle id="Auto_176" type="MotorCycle" route="route_12" depart="60" />
<vehicle id="Auto_177" type="Car" route="route_12" depart="60" />
<vehicle id="Car_178" type="MotorCycle" route="route_19" depart="60" />
<vehicle id="Bus_179" type="MotorCycle" route="route_20" depart="60" />
<vehicle id="MotorCycle_180" type="MotorCycle" route="route_21" depart="60" />
<vehicle id="MotorCycle_181" type="MotorCycle" route="route_22" depart="60" />
<vehicle id="MotorCycle_182" type="Car" route="route_23" depart="60" />
<vehicle id="Auto_183" type="MotorCycle" route="route_24" depart="60" />
<vehicle id="Car_184" type="MotorCycle" route="route_24" depart="61" />
<vehicle id="Bus_185" type="MotorCycle" route="route_4" depart="62" />
<vehicle id="Bus_186" type="MotorCycle" route="route_21" depart="62" />
<vehicle id="Auto_187" type="MotorCycle" route="route_2" depart="63" />
<vehicle id="Car_188" type="MotorCycle" route="route_20" depart="63" />
<vehicle id="MotorCycle_189" type="MotorCycle" route="route_23" depart="63" />
<vehicle id="MotorCycle_190" type="Car" route="route_23" depart="63" />
<vehicle id="Auto_191" type="MotorCycle" route="route_21" depart="64" />
<vehicle id="MotorCycle_192" type="Car" route="route_22" depart="64" />
<vehicle id="Bus_193" type="MotorCycle" route="route_19" depart="65" />
<vehicle id="Bus_194" type="MotorCycle" route="route_21" depart="65" />
<vehicle id="Auto_195" type="MotorCycle" route="route_22" depart="65" />
<vehicle id="Car_196" type="MotorCycle" route="route_24" depart="65" />
<vehicle id="Car_197" type="Auto" route="route_19" depart="66" />
<vehicle id="Car_198" type="MotorCycle" route="route_19" depart="66" />
<vehicle id="Auto_199" type="MotorCycle" route="route_23" depart="66" />
<vehicle id="Auto_200" type="MotorCycle" route="route_23" depart="67" />
<vehicle id="MotorCycle_201" type="MotorCycle" route="route_19" depart="68" />
<vehicle id="MotorCycle_202" type="Car" route="route_19" depart="68" />
<vehicle id="MotorCycle_203" type="MotorCycle" route="route_22" depart="68" />
<vehicle id="Bus_204" type="MotorCycle" route="route_23" depart="68" />
<vehicle id="Bus_205" type="MotorCycle" route="route_21" depart="69" />
<vehicle id="Car_206" type="MotorCycle" route="route_23" depart="69" />
<vehicle id="MotorCycle_207" type="MotorCycle" route="route_7" depart="70" />
<vehicle id="MotorCycle_208" type="Car" route="route_7" depart="70" />
<vehicle id="MotorCycle_209" type="MotorCycle" route="route_23" depart="70" />
<vehicle id="Bus_210" type="MotorCycle" route="route_17" depart="71" />
<vehicle id="Bus_211" type="Car" route="route_17" depart="71" />
<vehicle id="Bus_212" type="MotorCycle" route="route_20" depart="71" />
<vehicle id="Bus_213" type="MotorCycle" route="route_22" depart="71" />
<vehicle id="Car_214" type="MotorCycle" route="route_23" depart="71" />
<vehicle id="Auto_215" type="MotorCycle" route="route_24" depart="71" />
<vehicle id="Car_216" type="MotorCycle" route="route_5" depart="72" />
<vehicle id="Car_217" type="MotorCycle" route="route_21" depart="72" />
<vehicle id="Bus_218" type="MotorCycle" route="route_24" depart="72" />
<vehicle id="Bus_219" type="MotorCycle" route="route_23" depart="73" />
<vehicle id="Car_220" type="MotorCycle" route="route_20" depart="74" />
<vehicle id="Auto_221" type="MotorCycle" route="route_21" depart="74" />
<vehicle id="Auto_222" type="Car" route="route_21" depart="74" />
<vehicle id="Auto_223" type="Auto" route="route_22" depart="74" />
<vehicle id="Auto_224" type="MotorCycle" route="route_22" depart="74" />
<vehicle id="MotorCycle_225" type="MotorCycle" route="route_23" depart="74" />
<vehicle id="Bus_226" type="MotorCycle" route="route_21" depart="75" />
<vehicle id="MotorCycle_227" type="MotorCycle" route="route_8" depart="76" />
<vehicle id="MotorCycle_228" type="MotorCycle" route="route_20" depart="76" />
<vehicle id="MotorCycle_229" type="Car" route="route_20" depart="76" />
<vehicle id="Bus_230" type="Car" route="route_22" depart="76" />
<vehicle id="Bus_231" type="MotorCycle" route="route_7" depart="77" />
<vehicle id="Auto_232" type="MotorCycle" route="route_18" depart="77" />
<vehicle id="Bus_233" type="MotorCycle" route="route_24" depart="77" />
<vehicle id="Car_234" type="MotorCycle" route="route_17" depart="78" />
<vehicle id="Car_235" type="Auto" route="route_21" depart="78" />
<vehicle id="Car_236" type="MotorCycle" route="route_21" depart="78" />
<vehicle id="MotorCycle_237" type="MotorCycle" route="route_22" depart="78" />
<vehicle id="Bus_238" type="MotorCycle" route="route_3" depart="79" />
<vehicle id="MotorCycle_239" type="MotorCycle" route="route_5" depart="79" />
<vehicle id="Car_240" type="MotorCycle" route="route_20" depart="79" />
<vehicle id="Car_241" type="Car" route="route_20" depart="79" />
<vehicle id="Car_242" type="MotorCycle" route="route_21" depart="79" />
<vehicle id="Auto_243" type="MotorCycle" route="route_1" depart="80" />
<vehicle id="MotorCycle_244" type="MotorCycle" route="route_3" depart="80" />
<vehicle id="MotorCycle_245" type="Auto" route="route_4" depart="80" />
<vehicle id="MotorCycle_246" type="Car" route="route_4" depart="80" />
<vehicle id="Auto_247" type="MotorCycle" route="route_6" depart="80" />
<vehicle id="Bus_248" type="MotorCycle" route="route_19" depart="80" />
<vehicle id="Car_249" type="MotorCycle" route="route_10" depart="82" />
<vehicle id="Car_250" type="MotorCycle" route="route_21" depart="82" />
<vehicle id="Car_251" type="MotorCycle" route="route_23" depart="82" />
<vehicle id="MotorCycle_252" type="MotorCycle" route="route_2" depart="83" />
<vehicle id="MotorCycle_253" type="Car" route="route_2" depart="83" />
<vehicle id="Auto_254" type="MotorCycle" route="route_4" depart="84" />
<vehicle id="MotorCycle_255" type="MotorCycle" route="route_9" depart="84" />
<vehicle id="Car_256" type="MotorCycle" route="route_21" depart="84" />
<vehicle id="Car_257" type="Car" route="route_21" depart="84" />
<vehicle id="Car_258" type="MotorCycle" route="route_22" depart="85" />
<vehicle id="Auto_259" type="MotorCycle" route="route_19" depart="86" />
<vehicle id="Auto_260" type="MotorCycle" route="route_21" depart="86" />
<vehicle id="Auto_261" type="MotorCycle" route="route_23" depart="86" />
<vehicle id="Car_262" type="MotorCycle" route="route_20" depart="87" />
<vehicle id="Car_263" type="Auto" route="route_8" depart="88" />
<vehicle id="Car_264" type="MotorCycle" route="route_8" depart="88" />
<vehicle id="Car_265" type="MotorCycle" route="route_19" depart="88" />
<vehicle id="Auto_266" type="MotorCycle" route="route_4" depart="89" />
<vehicle id="MotorCycle_267" type="MotorCycle" route="route_10" depart="89" />
<vehicle id="Bus_268" type="MotorCycle" route="route_24" depart="89" />
<vehicle id="Auto_269" type="MotorCycle" route="route_19" depart="90" />
<vehicle id="Car_270" type="MotorCycle" route="route_8" depart="91" />
<vehicle id="Car_271" type="MotorCycle" route="route_20" depart="91" />
<vehicle id="Auto_272" type="MotorCycle" route="route_22" depart="91" />
<vehicle id="Auto_273" type="Car" route="route_22" depart="91" />
<vehicle id="Bus_274" type="MotorCycle" route="route_22" depart="92" />
<vehicle id="Car_275" type="MotorCycle" route="route_21" depart="93" />
<vehicle id="Auto_276" type="MotorCycle" route="route_22" depart="93" />
<vehicle id="Bus_277" type="MotorCycle" route="route_20" depart="96" />
<vehicle id="Car_278" type="Car" route="route_21" depart="96" />
<vehicle id="Bus_279" type="MotorCycle" route="route_23" depart="96" />
<vehicle id="Bus_280" type="MotorCycle" route="route_13" depart="97" />
<vehicle id="MotorCycle_281" type="MotorCycle" route="route_21" depart="97" />
<vehicle id="Bus_282" type="MotorCycle" route="route_23" depart="97" />
<vehicle id="MotorCycle_283" type="MotorCycle" route="route_22" depart="98" />
<vehicle id="Auto_284" type="MotorCycle" route="route_2" depart="99" />
<vehicle id="MotorCycle_285" type="MotorCycle" route="route_21" depart="99" />
<vehicle id="Car_286" type="MotorCycle" route="route_23" depart="99" />
<vehicle id="Bus_287" type="Bus" route="route_21" depart="100" />
<vehicle id="Bus_288" type="MotorCycle" route="route_21" depart="100" />
<vehicle id="Bus_289" type="MotorCycle" route="route_22" depart="100" />
<vehicle id="Car_290" type="MotorCycle" route="route_4" depart="101" />
<vehicle id="Auto_291" type="MotorCycle" route="route_5" depart="101" />
<vehicle id="Car_292" type="MotorCycle" route="route_6" depart="101" />
<vehicle id="Auto_293" type="MotorCycle" route="route_21" depart="101" />
<vehicle id="Bus_294" type="MotorCycle" route="route_22" depart="101" />
<vehicle id="Bus_295" type="Car" route="route_22" depart="101" />
<vehicle id="Bus_296" type="MotorCycle" route="route_23" depart="101" />
<vehicle id="Auto_297" type="Auto" route="route_24" depart="101" />
<vehicle id="Auto_298" type="MotorCycle" route="route_24" depart="101" />
<vehicle id="MotorCycle_299" type="MotorCycle" route="route_12" depart="103" />
<vehicle id="Auto_300" type="MotorCycle" route="route_16" depart="103" />
<vehicle id="Auto_301" type="Car" route="route_16" depart="103" />
<vehicle id="Car_302" type="Car" route="route_19" depart="103" />
<vehicle id="Bus_303" type="MotorCycle" route="route_22" depart="103" />
<vehicle id="MotorCycle_304" type="MotorCycle" route="route_8" depart="104" />
<vehicle id="Car_305" type="MotorCycle" route="route_5" depart="105" />
<vehicle id="MotorCycle_306" type="Bus" route="route_8" depart="105" />
<vehicle id="MotorCycle_307" type="MotorCycle" route="route_8" depart="105" />
<vehicle id="Car_308" type="MotorCycle" route="route_21" depart="105" />
<vehicle id="Auto_309" type="MotorCycle" route="route_6" depart="106" />
<vehicle id="Auto_310" type="MotorCycle" route="route_21" depart="106" />
<vehicle id="Auto_311" type="Car" route="route_21" depart="106" />
<vehicle id="Bus_312" type="MotorCycle" route="route_22" depart="106" />
<vehicle id="Car_313" type="MotorCycle" route="route_23" depart="106" />
<vehicle id="Car_314" type="Car" route="route_23" depart="106" />
<vehicle id="Auto_315" type="MotorCycle" route="route_21" depart="107" />
<vehicle id="Bus_316" type="MotorCycle" route="route_21" depart="108" />
<vehicle id="MotorCycle_317" type="Bus" route="route_22" depart="108" />
<vehicle id="MotorCycle_318" type="MotorCycle" route="route_22" depart="108" />
<vehicle id="Car_319" type="MotorCycle" route="route_7" depart="109" />
<vehicle id="Auto_320" type="MotorCycle" route="route_23" depart="109" />
<vehicle id="Bus_321" type="MotorCycle" route="route_24" depart="109" />
<vehicle id="Auto_322" type="MotorCycle" route="route_24" depart="110" />
<vehicle id="Auto_323" type="Car" route="route_24" depart="110" />
<vehicle id="Car_324" type="MotorCycle" route="route_19" depart="111" />
<vehicle id="MotorCycle_325" type="MotorCycle" route="route_20" depart="112" />
<vehicle id="Car_326" type="MotorCycle" route="route_22" depart="112" />
<vehicle id="Car_327" type="MotorCycle" route="route_2" depart="113" />
<vehicle id="Car_328" type="MotorCycle" route="route_4" depart="113" />
<vehicle id="Auto_329" type="MotorCycle" route="route_5" depart="113" />
<vehicle id="Auto_330" type="Car" route="route_5" depart="113" />
<vehicle id="Car_331" type="Car" route="route_19" depart="113" />
<vehicle id="Auto_332" type="MotorCycle" route="route_4" depart="114" />
<vehicle id="Bus_333" type="MotorCycle" route="route_20" depart="114" />
<vehicle id="Bus_334" type="MotorCycle" route="route_22" depart="114" />
<vehicle id="Bus_335" type="Car" route="route_22" depart="114" />
<vehicle id="Car_336" type="MotorCycle" route="route_23" depart="114" />
<vehicle id="Bus_337" type="MotorCycle" route="route_5" depart="115" />
<vehicle id="MotorCycle_338" type="MotorCycle" route="route_11" depart="115" />
<vehicle id="MotorCycle_339" type="Car" route="route_11" depart="115" />
<vehicle id="Car_340" type="MotorCycle" route="route_21" depart="115" />
<vehicle id="Car_341" type="Car" route="route_21" depart="115" />
<vehicle id="MotorCycle_342" type="Bus" route="route_24" depart="115" />
<vehicle id="MotorCycle_343" type="MotorCycle" route="route_24" depart="115" />
<vehicle id="MotorCycle_344" type="Auto" route="route_22" depart="116" />
<vehicle id="MotorCycle_345" type="MotorCycle" route="route_22" depart="116" />
<vehicle id="MotorCycle_346" type="MotorCycle" route="route_24" depart="116" />
<vehicle id="MotorCycle_347" type="MotorCycle" route="route_22" depart="117" />
<vehicle id="Bus_348" type="MotorCycle" route="route_24" depart="117" />
<vehicle id="MotorCycle_349" type="MotorCycle" route="route_20" depart="118" />
<vehicle id="Auto_350" type="Auto" route="route_22" depart="118" />
<vehicle id="Auto_351" type="MotorCycle" route="route_22" depart="118" />
<vehicle id="Auto_352" type="Car" route="route_22" depart="118" />
<vehicle id="Auto_353" type="MotorCycle" route="route_24" depart="118" />
<vehicle id="Auto_354" type="MotorCycle" route="route_7" depart="119" />
<vehicle id="Auto_355" type="Car" route="route_7" depart="119" />
<vehicle id="Bus_356" type="MotorCycle" route="route_20" depart="119" />
<vehicle id="Car_357" type="MotorCycle" route="route_21" depart="119" />
<vehicle id="Auto_358" type="MotorCycle" route="route_22" depart="119" />
<vehicle id="Auto_359" type="MotorCycle" route="route_18" depart="120" />
<vehicle id="Car_360" type="MotorCycle" route="route_22" depart="120" />
<vehicle id="Bus_361" type="MotorCycle" route="route_2" depart="121" />
<vehicle id="Bus_362" type="Car" route="route_2" depart="121" />
<vehicle id="Auto_363" type="MotorCycle" route="route_14" depart="121" />
<vehicle id="Auto_364" type="MotorCycle" route="route_19" depart="121" />
<vehicle id="Bus_365" type="MotorCycle" route="route_22" depart="121" />
<vehicle id="Bus_366" type="MotorCycle" route="route_24" depart="123" />
<vehicle id="Bus_367" type="MotorCycle" route="route_1" depart="124" />
<vehicle id="Bus_368" type="Car" route="route_1" depart="124" />
<vehicle id="Bus_369" type="MotorCycle" route="route_2" depart="124" />
<vehicle id="Bus_370" type="MotorCycle" route="route_22" depart="124" />
<vehicle id="Auto_371" type="Car" route="route_23" depart="124" />
<vehicle id="MotorCycle_372" type="MotorCycle" route="route_19" depart="125" />
<vehicle id="Car_373" type="MotorCycle" route="route_21" depart="126" />
<vehicle id="MotorCycle_374" type="MotorCycle" route="route_22" depart="126" />
<vehicle id="Car_375" type="MotorCycle" route="route_24" depart="126" />