<routes>
<vType id="Bus" accel="0.6" decel="3.5" sigma="0.5" length="10.1" minGap="1.0" maxSpeed="16.67" carFollowModel="Wiedemann" guiShape="bus" width="2.45" latAlignment="left" laneChangeModel="SL2015" lcStrategic="0.5" lcCooperative="0.0"/>
<vType id="Auto" accel="0.7" decel="4.5" sigma="0.5" length="2.6" minGap="0.3" maxSpeed="16" carFollowModel="Wiedemann" guiShape="passenger/sedan" width="1.25" latAlignment="left" laneChangeModel="SL2015" lcStrategic="0.5" lcCooperative="0.0" />
<vType id="MotorCycle" accel="0.9" decel="3.5" sigma="0.5" length="1.85" minGap="0.15"  carFollowModel="Wiedemann" maxSpeed="17" guiShape="motorcycle" width="0.7" latAlignment="left" laneChangeModel="SL2015" lcStrategic="0.5" lcCooperative="0.0"/>
<vType id="Car" accel="0.8" decel="4.5" sigma="0.5" length="3.6" minGap="0.5" maxSpeed="40" carFollowModel="Wiedemann" guiShape="passenger" width="1.5" latAlignment="left" laneChangeModel="SL2015" lcStrategic="0.5" lcCooperative="0.0"/>
<vType id="emergency" accel="2.8" decel="5.5" sigma="0.5" length="3.6" minGap="0.5" maxSpeed="120.6" carFollowModel="Wiedemann" guiShape="emergency" width="1.5" latAlignment="left" laneChangeModel="SL2015" lcStrategic="0.5" lcCooperative="0.0" vClass="emergency" speedFactor="1.9" jmDriveAfterRedTime="300" jmDriveAfterRedSpeed="5.56">
<param key="has.bluelight.device" value="true"/>
<param key="has.fcd.device" value="true"/> 
</vType>
<route id="route_0" edges="1i 52i gneE0 gneE2" />
<route id="route_1" edges="-gneE2 -gneE0 52o 2i 1o" />
        <route id="route_2" edges="4i 3o" />
        <route id="route_3" edges="3i 4o" />
        <route id="route_4" edges="-gneE1 gneE3" /> 
        <route id="route_5" edges="4i 1o" />
        <route id="route_6" edges="4i 2o 52i gneE0 gneE1" />
        <route id="route_7" edges="2i 4o" />
        <route id="route_8" edges="2i 3o" />
        <route id="route_9" edges="-gneE1 gneE3" />
        <route id="route_10" edges="3i 2o 52i gneE0 gneE3" />
        <route id="route_11" edges="3i 1o" />
        <route id="route_12" edges="-gneE1 -gneE0 52o 2i 4o" />
        <route id="route_13" edges="-gneE1 gneE2" />
        <route id="route_14" edges="-gneE2 gneE1" />
        <route id="route_15" edges="-gneE2 gneE3" />
        <route id="route_16" edges="-gneE3 -gneE0 52o 2i 3o" />
        <route id="route_17" edges="-gneE3 gneE2" />
        <route id="route_18" edges="gneE0 gneE3" />
        <route id="route_19" edges="gneE0 gneE1" />
        <route id="route_20" edges="1i 2o 52i gneE0 gneE2 -gneE4 gneE5" />
        <route id="route_21" edges="-gneE5 gneE4 -gneE2 -gneE0 52o 2i 1o" />
        <route id="route_22" edges="-gneE5 gneE4 -gneE2 -gneE0 52o 2i 3o" />
        <route id="route_23" edges="1i 2o 52i gneE0 gneE2 -gneE4 gneE7" />

	<route id="route_24" edges="gneE0"/>
<vehicle id="emergency_0" type="emergency" route="route_3" depart="0" />
<vehicle id="Bus_0" type="Bus" route="route_3" depart="0" />
<vehicle id="Car_0" type="Car" route="route_13" depart="0" />
<vehicle id="Car_1" type="MotorCycle" route="route_4" depart="1" />
<vehicle id="MotorCycle_2" type="MotorCycle" route="route_19" depart="1" />
<vehicle id="Auto_3" type="MotorCycle" route="route_22" depart="1" />
<vehicle id="Auto_4" type="MotorCycle" route="route_21" depart="2" />
<vehicle id="Auto_5" type="Car" route="route_21" depart="2" />
<vehicle id="MotorCycle_6" type="MotorCycle" route="route_24" depart="2" />
<vehicle id="MotorCycle_7" type="Car" route="route_24" depart="2" />
<vehicle id="Bus_8" type="MotorCycle" route="route_1" depart="3" />
<vehicle id="Bus_9" type="Car" route="route_21" depart="3" />
<vehicle id="MotorCycle_10" type="MotorCycle" route="route_11" depart="4" />
<vehicle id="Auto_11" type="Bus" route="route_21" depart="4" />
<vehicle id="Auto_12" type="MotorCycle" route="route_21" depart="4" />
<vehicle id="Bus_13" type="MotorCycle" route="route_8" depart="5" />
<vehicle id="Auto_14" type="MotorCycle" route="route_22" depart="5" />
<vehicle id="MotorCycle_15" type="MotorCycle" route="route_8" depart="6" />
<vehicle id="MotorCycle_16" type="Car" route="route_8" depart="6" />
<vehicle id="Bus_17" type="MotorCycle" route="route_10" depart="6" />
<vehicle id="Car_18" type="MotorCycle" route="route_12" depart="6" />
<vehicle id="Auto_19" type="MotorCycle" route="route_22" depart="6" />
<vehicle id="Auto_20" type="MotorCycle" route="route_24" depart="6" />
<vehicle id="Auto_21" type="MotorCycle" route="route_20" depart="7" />
<vehicle id="Auto_22" type="Car" route="route_20" depart="7" />
<vehicle id="MotorCycle_23" type="MotorCycle" route="route_21" depart="7" />
<vehicle id="Car_24" type="MotorCycle" route="route_23" depart="7" />
<vehicle id="MotorCycle_25" type="MotorCycle" route="route_4" depart="8" />
<vehicle id="Car_26" type="MotorCycle" route="route_19" depart="8" />
<vehicle id="Bus_27" type="MotorCycle" route="route_21" depart="8" />
<vehicle id="Auto_28" type="MotorCycle" route="route_23" depart="8" />
<vehicle id="MotorCycle_29" type="MotorCycle" route="route_21" depart="9" />
<vehicle id="Bus_30" type="Auto" route="route_24" depart="9" />
<vehicle id="Bus_31" type="MotorCycle" route="route_24" depart="9" />
<vehicle id="MotorCycle_32" type="MotorCycle" route="route_1" depart="10" />
<vehicle id="MotorCycle_33" type="Car" route="route_1" depart="10" />
<vehicle id="Auto_34" type="Car" route="route_2" depart="10" />
<vehicle id="Car_35" type="MotorCycle" route="route_20" depart="10" />
<vehicle id="MotorCycle_36" type="MotorCycle" route="route_22" depart="10" />
<vehicle id="Bus_37" type="MotorCycle" route="route_8" depart="11" />
<vehicle id="MotorCycle_38" type="Car" route="route_11" depart="11" />
<vehicle id="Auto_39" type="MotorCycle" route="route_20" depart="11" />
<vehicle id="MotorCycle_40" type="MotorCycle" route="route_23" depart="11" />
<vehicle id="Auto_41" type="MotorCycle" route="route_24" depart="11" />
<vehicle id="Car_42" type="MotorCycle" route="route_5" depart="12" />
<vehicle id="Bus_43" type="MotorCycle" route="route_7" depart="12" />
<vehicle id="Auto_44" type="MotorCycle" route="route_14" depart="12" />
<vehicle id="MotorCycle_45" type="MotorCycle" route="route_19" depart="12" />
<vehicle id="Car_46" type="MotorCycle" route="route_20" depart="12" />
<vehicle id="MotorCycle_47" type="MotorCycle" route="route_24" depart="12" />
<vehicle id="Auto_48" type="MotorCycle" route="route_21" depart="13" />
<vehicle id="Bus_49" type="MotorCycle" route="route_22" depart="14" />
<vehicle id="Auto_50" type="MotorCycle" route="route_12" depart="15" />
<vehicle id="Auto_51" type="Car" route="route_12" depart="15" />
<vehicle id="Auto_52" type="MotorCycle" route="route_20" depart="16" />
<vehicle id="Auto_53" type="Car" route="route_20" depart="16" />
<vehicle id="Auto_54" type="Bus" route="route_21" depart="16" />
<vehicle id="Auto_55" type="MotorCycle" route="route_21" depart="16" />
<vehicle id="MotorCycle_56" type="MotorCycle" route="route_22" depart="16" />
<vehicle id="MotorCycle_57" type="MotorCycle" route="route_22" depart="17" />
<vehicle id="Auto_58" type="MotorCycle" route="route_11" depart="19" />
<vehicle id="Bus_59" type="MotorCycle" route="route_20" depart="19" />
<vehicle id="MotorCycle_60" type="MotorCycle" route="route_22" depart="19" />
<vehicle id="Bus_61" type="MotorCycle" route="route_1" depart="20" />
<vehicle id="Car_62" type="MotorCycle" route="route_2" depart="20" />
<vehicle id="MotorCycle_63" type="MotorCycle" route="route_3" depart="20" />
<vehicle id="Auto_64" type="MotorCycle" route="route_22" depart="20" />
<vehicle id="MotorCycle_65" type="MotorCycle" route="route_23" depart="20" />
<vehicle id="Bus_66" type="MotorCycle" route="route_24" depart="20" />
<vehicle id="Car_67" type="MotorCycle" route="route_21" depart="21" />
<vehicle id="Auto_68" type="MotorCycle" route="route_22" depart="21" />
<vehicle id="Car_69" type="MotorCycle" route="route_23" depart="21" />
<vehicle id="Auto_70" type="MotorCycle" route="route_24" depart="21" />
<vehicle id="Auto_71" type="Car" route="route_24" depart="21" />
<vehicle id="Auto_72" type="MotorCycle" route="route_7" depart="22" />
<vehicle id="Auto_73" type="Car" route="route_7" depart="22" />
<vehicle id="Auto_74" type="MotorCycle" route="route_20" depart="23" />
<vehicle id="Car_75" type="MotorCycle" route="route_22" depart="23" />
<vehicle id="Auto_76" type="MotorCycle" route="route_1" depart="24" />
<vehicle id="MotorCycle_77" type="MotorCycle" route="route_20" depart="24" />
<vehicle id="Car_78" type="MotorCycle" route="route_21" depart="24" />
<vehicle id="Car_79" type="Car" route="route_21" depart="24" />
<vehicle id="Bus_80" type="MotorCycle" route="route_23" depart="24" />
<vehicle id="Bus_81" type="MotorCycle" route="route_11" depart="25" />
<vehicle id="Auto_82" type="MotorCycle" route="route_21" depart="25" />
<vehicle id="Car_83" type="MotorCycle" route="route_23" depart="25" />
<vehicle id="Car_84" type="Car" route="route_23" depart="25" />
<vehicle id="Car_85" type="Car" route="route_24" depart="25" />
<vehicle id="Auto_86" type="MotorCycle" route="route_24" depart="26" />
<vehicle id="Auto_87" type="Car" route="route_24" depart="26" />
<vehicle id="MotorCycle_88" type="MotorCycle" route="route_14" depart="27" />
<vehicle id="Bus_89" type="MotorCycle" route="route_20" depart="27" />
<vehicle id="Bus_90" type="Car" route="route_20" depart="27" />
<vehicle id="Bus_91" type="MotorCycle" route="route_24" depart="27" />
<vehicle id="Bus_92" type="Car" route="route_24" depart="27" />
<vehicle id="MotorCycle_93" type="MotorCycle" route="route_3" depart="28" />
<vehicle id="Auto_94" type="Car" route="route_19" depart="28" />
<vehicle id="MotorCycle_95" type="MotorCycle" route="route_20" depart="28" />
<vehicle id="Auto_96" type="Auto" route="route_23" depart="28" />
<vehicle id="Auto_97" type="MotorCycle" route="route_23" depart="28" />
<vehicle id="Car_98" type="MotorCycle" route="route_24" depart="28" />
<vehicle id="Auto_99" type="MotorCycle" route="route_3" depart="29" />
<vehicle id="Auto_100" type="Car" route="route_3" depart="29" />
<vehicle id="MotorCycle_101" type="MotorCycle" route="route_5" depart="29" />
<vehicle id="MotorCycle_102" type="Car" route="route_22" depart="29" />
<vehicle id="Bus_103" type="MotorCycle" route="route_23" depart="29" />
<vehicle id="Bus_104" type="MotorCycle" route="route_9" depart="30" />
<vehicle id="MotorCycle_105" type="MotorCycle" route="route_12" depart="30" />
<vehicle id="MotorCycle_106" type="MotorCycle" route="route_21" depart="30" />
<vehicle id="Bus_107" type="Auto" route="route_24" depart="30" />
<vehicle id="Bus_108" type="MotorCycle" route="route_24" depart="30" />
<vehicle id="Bus_109" type="Car" route="route_24" depart="30" />
<vehicle id="Car_110" type="MotorCycle" route="route_21" depart="31" />
<vehicle id="Car_111" type="MotorCycle" route="route_19" depart="32" />
<vehicle id="Car_112" type="Car" route="route_19" depart="32" />
<vehicle id="Car_113" type="MotorCycle" route="route_20" depart="32" />
<vehicle id="Car_114" type="MotorCycle" route="route_24" depart="32" />
<vehicle id="Car_115" type="MotorCycle" route="route_21" depart="33" />
<vehicle id="Car_116" type="MotorCycle" route="route_24" depart="33" />
<vehicle id="MotorCycle_117" type="MotorCycle" route="route_15" depart="34" />
<vehicle id="MotorCycle_118" type="Car" route="route_15" depart="34" />
<vehicle id="Bus_119" type="MotorCycle" route="route_21" depart="34" />
<vehicle id="Bus_120" type="Car" route="route_21" depart="34" />
<vehicle id="MotorCycle_121" type="MotorCycle" route="route_22" depart="34" />
<vehicle id="MotorCycle_122" type="Car" route="route_22" depart="34" />
<vehicle id="Auto_123" type="MotorCycle" route="route_24" depart="34" />
<vehicle id="Car_124" type="Auto" route="route_19" depart="35" />
<vehicle id="MotorCycle_125" type="Car" route="route_21" depart="35" />
<vehicle id="Auto_126" type="MotorCycle" route="route_22" depart="35" />
<vehicle id="Car_127" type="MotorCycle" route="route_20" depart="36" />
<vehicle id="Car_128" type="MotorCycle" route="route_21" depart="36" />
<vehicle id="MotorCycle_129" type="MotorCycle" route="route_22" depart="36" />
<vehicle id="Auto_130" type="MotorCycle" route="route_24" depart="36" />
<vehicle id="Car_131" type="MotorCycle" route="route_21" depart="38" />
<vehicle id="Car_132" type="Car" route="route_21" depart="38" />
<vehicle id="MotorCycle_133" type="MotorCycle" route="route_24" depart="38" />
<vehicle id="MotorCycle_134" type="MotorCycle" route="route_4" depart="39" />
<vehicle id="Car_135" type="Auto" route="route_21" depart="39" />
<vehicle id="MotorCycle_136" type="MotorCycle" route="route_2" depart="40" />
<vehicle id="MotorCycle_137" type="Car" route="route_2" depart="40" />
<vehicle id="Bus_138" type="MotorCycle" route="route_19" depart="40" />
<vehicle id="Bus_139" type="Car" route="route_19" depart="40" />
<vehicle id="MotorCycle_140" type="MotorCycle" route="route_21" depart="40" />
<vehicle id="Car_141" type="MotorCycle" route="route_23" depart="40" />
<vehicle id="MotorCycle_142" type="MotorCycle" route="route_24" depart="40" />
<vehicle id="MotorCycle_143" type="Car" route="route_24" depart="40" />
<vehicle id="MotorCycle_144" type="MotorCycle" route="route_5" depart="41" />
<vehicle id="Bus_145" type="MotorCycle" route="route_22" depart="41" />
<vehicle id="Bus_146" type="MotorCycle" route="route_23" depart="41" />
<vehicle id="Auto_147" type="MotorCycle" route="route_21" depart="42" />
<vehicle id="Auto_148" type="MotorCycle" route="route_20" depart="43" />
<vehicle id="Car_149" type="Bus" route="route_21" depart="43" />
<vehicle id="Car_150" type="MotorCycle" route="route_21" depart="43" />
<vehicle id="Car_151" type="MotorCycle" route="route_22" depart="44" />
<vehicle id="MotorCycle_152" type="MotorCycle" route="route_16" depart="45" />
<vehicle id="Bus_153" type="MotorCycle" route="route_19" depart="45" />
<vehicle id="Bus_154" type="MotorCycle" route="route_21" depart="45" />
<vehicle id="Car_155" type="MotorCycle" route="route_23" depart="45" />
<vehicle id="Car_156" type="Car" route="route_23" depart="45" />
<vehicle id="Bus_157" type="MotorCycle" route="route_21" depart="46" />
<vehicle id="Auto_158" type="MotorCycle" route="route_24" depart="46" />
<vehicle id="MotorCycle_159" type="MotorCycle" route="route_5" depart="47" />
<vehicle id="Car_160" type="Car" route="route_21" depart="47" />
<vehicle id="Bus_161" type="MotorCycle" route="route_22" depart="47" />
<vehicle id="Car_162" type="MotorCycle" route="route_20" depart="48" />
<vehicle id="Bus_163" type="MotorCycle" route="route_21" depart="48" />
<vehicle id="Bus_164" type="Car" route="route_21" depart="48" />
<vehicle id="Bus_165" type="MotorCycle" route="route_3" depart="49" />
<vehicle id="Car_166" type="MotorCycle" route="route_12" depart="49" />
<vehicle id="Car_167" type="Car" route="route_12" depart="49" />
<vehicle id="Bus_168" type="MotorCycle" route="route_15" depart="49" />
<vehicle id="MotorCycle_169" type="MotorCycle" route="route_22" depart="49" />
<vehicle id="Car_170" type="MotorCycle" route="route_20" depart="50" />
<vehicle id="Car_171" type="Car" route="route_20" depart="50" />
<vehicle id="Bus_172" type="Auto" route="route_21" depart="50" />
<vehicle id="Bus_173" type="MotorCycle" route="route_21" depart="50" />
<vehicle id="Car_174" type="MotorCycle" route="route_23" depart="50" />
<vehicle id="Bus_175" type="MotorCycle" route="route_24" depart="50" />
<vehicle id="Bus_176" type="Car" route="route_24" depart="50" />
<vehicle id="Auto_177" type="MotorCycle" route="route_21" depart="51" />
<vehicle id="Auto_178" type="Car" route="route_21" depart="51" />
<vehicle id="Car_179" type="Auto" route="route_23" depart="51" />
<vehicle id="Car_180" type="MotorCycle" route="route_23" depart="51" />
<vehicle id="Car_181" type="MotorCycle" route="route_8" depart="52" />
<vehicle id="Car_182" type="MotorCycle" route="route_5" depart="53" />
<vehicle id="Bus_183" type="MotorCycle" route="route_20" depart="53" />
<vehicle id="Bus_184" type="Car" route="route_20" depart="53" />
<vehicle id="Car_185" type="MotorCycle" route="route_21" depart="53" />
<vehicle id="Car_186" type="Bus" route="route_11" depart="54" />
<vehicle id="Car_187" type="MotorCycle" route="route_11" depart="54" />
<vehicle id="MotorCycle_188" type="MotorCycle" route="route_13" depart="54" />
<vehicle id="MotorCycle_189" type="MotorCycle" route="route_19" depart="54" />
<vehicle id="Auto_190" type="MotorCycle" route="route_21" depart="54" />
<vehicle id="Car_191" type="MotorCycle" route="route_2" depart="55" />
<vehicle id="Car_192" type="MotorCycle" route="route_4" depart="55" />
<vehicle id="Car_193" type="MotorCycle" route="route_22" depart="55" />
<vehicle id="Car_194" type="MotorCycle" route="route_24" depart="55" />
<vehicle id="MotorCycle_195" type="Car" route="route_21" depart="57" />
<vehicle id="Car_196" type="Auto" route="route_12" depart="58" />
<vehicle id="Car_197" type="MotorCycle" route="route_12" depart="58" />
<vehicle id="Auto_198" type="MotorCycle" route="route_21" depart="58" />
<vehicle id="Car_199" type="MotorCycle" route="route_22" depart="58" />
<vehicle id="Car_200" type="Car" route="route_22" depart="58" />
<vehicle id="MotorCycle_201" type="MotorCycle" route="route_22" depart="59" />
<vehicle id="Bus_202" type="MotorCycle" route="route_23" depart="59" />
<vehicle id="MotorCycle_203" type="MotorCycle" route="route_24" depart="59" />
<vehicle id="Bus_204" type="MotorCycle" route="route_19" depart="60" />
<vehicle id="Bus_205" type="Car" route="route_19" depart="60" />
<vehicle id="Auto_206" type="MotorCycle" route="route_20" depart="60" />
<vehicle id="Auto_207" type="Car" route="route_20" depart="60" />
<vehicle id="Auto_208" type="MotorCycle" route="route_22" depart="61" />
<vehicle id="Car_209" type="MotorCycle" route="route_21" depart="62" />
<vehicle id="Car_210" type="Car" route="route_21" depart="62" />
<vehicle id="MotorCycle_211" type="MotorCycle" route="route_19" depart="63" />
<vehicle id="Bus_212" type="MotorCycle" route="route_22" depart="63" />
<vehicle id="Bus_213" type="Car" route="route_22" depart="63" />
<vehicle id="Auto_214" type="Bus" route="route_23" depart="63" />
<vehicle id="Auto_215" type="MotorCycle" route="route_23" depart="63" />
<vehicle id="Bus_216" type="MotorCycle" route="route_24" depart="63" />
<vehicle id="Bus_217" type="Car" route="route_24" depart="63" />
<vehicle id="Auto_218" type="MotorCycle" route="route_20" depart="64" />
<vehicle id="Auto_219" type="MotorCycle" route="route_23" depart="64" />
<vehicle id="Car_220" type="MotorCycle" route="route_19" depart="65" />
<vehicle id="Auto_221" type="MotorCycle" route="route_22" depart="65" />
<vehicle id="Auto_222" type="Car" route="route_22" depart="65" />
<vehicle id="MotorCycle_223" type="MotorCycle" route="route_24" depart="65" />
<vehicle id="Bus_224" type="Auto" route="route_7" depart="66" />
<vehicle id="Bus_225" type="MotorCycle" route="route_7" depart="66" />
<vehicle id="MotorCycle_226" type="MotorCycle" route="route_19" depart="66" />
<vehicle id="Auto_227" type="MotorCycle" route="route_21" depart="66" />
<vehicle id="MotorCycle_228" type="MotorCycle" route="route_22" depart="66" />
<vehicle id="Car_229" type="MotorCycle" route="route_4" depart="67" />
<vehicle id="Bus_230" type="MotorCycle" route="route_10" depart="67" />
<vehicle id="Bus_231" type="MotorCycle" route="route_19" depart="67" />
<vehicle id="Car_232" type="Bus" route="route_21" depart="67" />
<vehicle id="Car_233" type="MotorCycle" route="route_21" depart="67" />
<vehicle id="Bus_234" type="MotorCycle" route="route_20" depart="68" />
<vehicle id="Auto_235" type="MotorCycle" route="route_21" depart="68" />
<vehicle id="Auto_236" type="MotorCycle" route="route_22" depart="69" />
<vehicle id="Car_237" type="MotorCycle" route="route_24" depart="69" />
<vehicle id="Auto_238" type="MotorCycle" route="route_3" depart="70" />
<vehicle id="Car_239" type="MotorCycle" route="route_4" depart="70" />
<vehicle id="Auto_240" type="MotorCycle" route="route_16" depart="70" />
<vehicle id="Bus_241" type="MotorCycle" route="route_22" depart="70" />
<vehicle id="MotorCycle_242" type="MotorCycle" route="route_23" depart="70" />
<vehicle id="Bus_243" type="MotorCycle" route="route_11" depart="71" />
<vehicle id="Auto_244" type="MotorCycle" route="route_24" depart="71" />
<vehicle id="Auto_245" type="Car" route="route_24" depart="71" />
<vehicle id="Car_246" type="MotorCycle" route="route_11" depart="72" />
<vehicle id="Car_247" type="Car" route="route_11" depart="72" />
<vehicle id="Auto_248" type="MotorCycle" route="route_12" depart="73" />
<vehicle id="MotorCycle_249" type="Auto" route="route_15" depart="73" />
<vehicle id="MotorCycle_250" type="MotorCycle" route="route_15" depart="73" />
<vehicle id="Auto_251" type="MotorCycle" route="route_21" depart="73" />
<vehicle id="Auto_252" type="Car" route="route_21" depart="73" />
<vehicle id="Car_253" type="MotorCycle" route="route_22" depart="73" />
<vehicle id="Auto_254" type="MotorCycle" route="route_3" depart="74" />
<vehicle id="Bus_255" type="MotorCycle" route="route_21" depart="74" />
<vehicle id="Auto_256" type="MotorCycle" route="route_21" depart="75" />
<vehicle id="Auto_257" type="Bus" route="route_19" depart="76" />
<vehicle id="Auto_258" type="MotorCycle" route="route_21" depart="76" />
<vehicle id="Auto_259" type="MotorCycle" route="route_21" depart="77" />
<vehicle id="MotorCycle_260" type="MotorCycle" route="route_22" depart="77" />
<vehicle id="Bus_261" type="MotorCycle" route="route_24" depart="77" />
<vehicle id="Bus_262" type="MotorCycle" route="route_5" depart="78" />
<vehicle id="Car_263" type="MotorCycle" route="route_21" depart="78" />
<vehicle id="Auto_264" type="MotorCycle" route="route_20" depart="79" />
<vehicle id="Auto_265" type="MotorCycle" route="route_23" depart="79" />
<vehicle id="Auto_266" type="MotorCycle" route="route_21" depart="80" />
<vehicle id="Auto_267" type="Car" route="route_21" depart="80" />
<vehicle id="MotorCycle_268" type="MotorCycle" route="route_22" depart="80" />
<vehicle id="Car_269" type="MotorCycle" route="route_21" depart="81" />
<vehicle id="Car_270" type="MotorCycle" route="route_22" depart="81" />
<vehicle id="Car_271" type="Car" route="route_22" depart="81" />
<vehicle id="Bus_272" type="MotorCycle" route="route_21" depart="82" />
<vehicle id="Auto_273" type="MotorCycle" route="route_22" depart="82" />
<vehicle id="Auto_274" type="Car" route="route_22" depart="82" />
<vehicle id="MotorCycle_275" type="MotorCycle" route="route_24" depart="82" />
<vehicle id="MotorCycle_276" type="MotorCycle" route="route_22" depart="83" />
<vehicle id="MotorCycle_277" type="Auto" route="route_24" depart="83" />
<vehicle id="MotorCycle_278" type="MotorCycle" route="route_24" depart="83" />
<vehicle id="Car_279" type="MotorCycle" route="route_22" depart="84" />
<vehicle id="Auto_280" type="MotorCycle" route="route_20" depart="85" />
<vehicle id="MotorCycle_281" type="MotorCycle" route="route_16" depart="86" />
<vehicle id="MotorCycle_282" type="MotorCycle" route="route_22" depart="86" />
<vehicle id="Auto_283" type="MotorCycle" route="route_23" depart="86" />
<vehicle id="MotorCycle_284" type="MotorCycle" route="route_23" depart="87" />
<vehicle id="Auto_285" type="MotorCycle" route="route_21" depart="88" />
<vehicle id="Car_286" type="MotorCycle" route="route_23" depart="88" />
<vehicle id="MotorCycle_287" type="MotorCycle" route="route_24" depart="88" />
<vehicle id="MotorCycle_288" type="MotorCycle" route="route_2" depart="89" />
<vehicle id="Bus_289" type="MotorCycle" route="route_19" depart="89" />
<vehicle id="Bus_290" type="Car" route="route_19" depart="89" />
<vehicle id="Bus_291" type="MotorCycle" route="route_21" depart="89" />
<vehicle id="Auto_292" type="MotorCycle" route="route_22" depart="89" />
<vehicle id="Bus_293" type="MotorCycle" route="route_24" depart="89" />
<vehicle id="Car_294" type="MotorCycle" route="route_1" depart="90" />
<vehicle id="Auto_295" type="MotorCycle" route="route_12" depart="90" />
<vehicle id="Bus_296" type="MotorCycle" route="route_15" depart="90" />
<vehicle id="MotorCycle_297" type="MotorCycle" route="route_21" depart="90" />
<vehicle id="Auto_298" type="Car" route="route_23" depart="90" />
<vehicle id="Car_299" type="MotorCycle" route="route_14" depart="91" />
<vehicle id="MotorCycle_300" type="MotorCycle" route="route_22" depart="91" />
<vehicle id="Bus_301" type="MotorCycle" route="route_22" depart="92" />
<vehicle id="MotorCycle_302" type="MotorCycle" route="route_23" depart="92" />
<vehicle id="MotorCycle_303" type="MotorCycle" route="route_24" depart="92" />
<vehicle id="Auto_304" type="MotorCycle" route="route_9" depart="93" />
<vehicle id="Auto_305" type="Car" route="route_9" depart="93" />
<vehicle id="Car_306" type="Car" route="route_22" depart="94" />
<vehicle id="MotorCycle_307" type="MotorCycle" route="route_23" depart="94" />
<vehicle id="MotorCycle_308" type="MotorCycle" route="route_24" depart="95" />
<vehicle id="Bus_309" type="Car" route="route_20" depart="96" />
<vehicle id="Auto_310" type="MotorCycle" route="route_22" depart="96" />
<vehicle id="Auto_311" type="MotorCycle" route="route_21" depart="97" />
<vehicle id="Car_312" type="MotorCycle" route="route_21" depart="98" />
<vehicle id="Car_313" type="Car" route="route_21" depart="98" />
<vehicle id="Auto_314" type="MotorCycle" route="route_2" depart="99" />
<vehicle id="MotorCycle_315" type="MotorCycle" route="route_24" depart="99" />
<vehicle id="Car_316" type="Auto" route="route_10" depart="100" />
<vehicle id="MotorCycle_317" type="MotorCycle" route="route_22" depart="100" />
<vehicle id="MotorCycle_318" type="MotorCycle" route="route_23" depart="100" />
<vehicle id="MotorCycle_319" type="MotorCycle" route="route_24" depart="100" />
<vehicle id="MotorCycle_320" type="Car" route="route_24" depart="100" />
<vehicle id="MotorCycle_321" type="MotorCycle" route="route_12" depart="101" />
<vehicle id="MotorCycle_322" type="Car" route="route_12" depart="101" />
<vehicle id="Car_323" type="MotorCycle" route="route_19" depart="101" />
<vehicle id="Bus_324" type="Bus" route="route_22" depart="101" />
<vehicle id="Bus_325" type="MotorCycle" route="route_22" depart="101" />
<vehicle id="MotorCycle_326" type="MotorCycle" route="route_24" depart="101" />
<vehicle id="Bus_327" type="MotorCycle" route="route_4" depart="102" />
<vehicle id="Car_328" type="MotorCycle" route="route_22" depart="102" />
<vehicle id="Car_329" type="MotorCycle" route="route_24" depart="102" />
<vehicle id="Car_330" type="MotorCycle" route="route_23" depart="103" />
<vehicle id="Car_331" type="MotorCycle" route="route_24" depart="103" />
<vehicle id="MotorCycle_332" type="MotorCycle" route="route_6" depart="104" />
<vehicle id="MotorCycle_333" type="Car" route="route_6" depart="104" />
<vehicle id="Bus_334" type="MotorCycle" route="route_10" depart="104" />
<vehicle id="Bus_335" type="MotorCycle" route="route_22" depart="104" />
<vehicle id="Bus_336" type="Bus" route="route_20" depart="105" />
<vehicle id="Bus_337" type="MotorCycle" route="route_20" depart="105" />
<vehicle id="Auto_338" type="MotorCycle" route="route_3" depart="106" />
<vehicle id="Bus_339" type="MotorCycle" route="route_21" depart="106" />
<vehicle id="Auto_340" type="MotorCycle" route="route_22" depart="106" />
<vehicle id="Auto_341" type="MotorCycle" route="route_23" depart="106" />
<vehicle id="MotorCycle_342" type="MotorCycle" route="route_24" depart="106" />
<vehicle id="Car_343" type="MotorCycle" route="route_5" depart="107" />
<vehicle id="Car_344" type="MotorCycle" route="route_11" depart="107" />
<vehicle id="Bus_345" type="MotorCycle" route="route_19" depart="107" />
<vehicle id="MotorCycle_346" type="MotorCycle" route="route_23" depart="107" />
<vehicle id="MotorCycle_347" type="Car" route="route_23" depart="107" />
<vehicle id="Bus_348" type="MotorCycle" route="route_10" depart="108" />
<vehicle id="Bus_349" type="Bus" route="route_15" depart="108" />
<vehicle id="Bus_350" type="MotorCycle" route="route_15" depart="108" />
<vehicle id="MotorCycle_351" type="MotorCycle" route="route_20" depart="108" />
<vehicle id="Car_352" type="Bus" route="route_21" depart="108" />
<vehicle id="Car_353" type="MotorCycle" route="route_21" depart="108" />
<vehicle id="Bus_354" type="MotorCycle" route="route_24" depart="108" />
<vehicle id="Bus_355" type="Car" route="route_24" depart="108" />
<vehicle id="MotorCycle_356" type="MotorCycle" route="route_19" depart="109" />
<vehicle id="Auto_357" type="MotorCycle" route="route_22" depart="109" />
<vehicle id="MotorCycle_358" type="MotorCycle" route="route_10" depart="110" />
<vehicle id="Bus_359" type="MotorCycle" route="route_21" depart="110" />
<vehicle id="Car_360" type="MotorCycle" route="route_22" depart="110" />
<vehicle id="Auto_361" type="MotorCycle" route="route_23" depart="110" />
<vehicle id="MotorCycle_362" type="MotorCycle" route="route_24" depart="110" />
<vehicle id="Bus_363" type="MotorCycle" route="route_22" depart="111" />
<vehicle id="Auto_364" type="MotorCycle" route="route_11" depart="112" />
<vehicle id="Car_365" type="MotorCycle" route="route_20" depart="112" />
<vehicle id="MotorCycle_366" type="MotorCycle" route="route_22" depart="113" />
<vehicle id="MotorCycle_367" type="Car" route="route_22" depart="113" />
<vehicle id="Car_368" type="MotorCycle" route="route_24" depart="113" />
<vehicle id="Bus_369" type="MotorCycle" route="route_4" depart="114" />
<vehicle id="Bus_370" type="Car" route="route_4" depart="114" />
<vehicle id="Car_371" type="MotorCycle" route="route_10" depart="115" />
<vehicle id="MotorCycle_372" type="MotorCycle" route="route_20" depart="115" />
<vehicle id="Auto_373" type="MotorCycle" route="route_21" depart="115" />
<vehicle id="Auto_374" type="MotorCycle" route="route_22" depart="115" />