<routes>
<vType id="Bus" accel="0.6" decel="3.5" sigma="0.5" length="10.1" minGap="1.0" maxSpeed="16.67" carFollowModel="Wiedemann" guiShape="bus" width="2.45" latAlignment="left" laneChangeModel="SL2015" lcStrategic="0.5" lcCooperative="0.0"/>
<vType id="Auto" accel="0.7" decel="4.5" sigma="0.5" length="2.6" minGap="0.3" maxSpeed="16" carFollowModel="Wiedemann" guiShape="passenger/sedan" width="1.25" latAlignment="left" laneChangeModel="SL2015" lcStrategic="0.5" lcCooperative="0.0" />
<vType id="MotorCycle" accel="0.9" decel="3.5" sigma="0.5" length="1.85" minGap="0.15"  carFollowModel="Wiedemann" maxSpeed="17" guiShape="motorcycle" width="0.7" latAlignment="left" laneChangeModel="SL2015" lcStrategic="0.5" lcCooperative="0.0"/>
<vType id="Car" accel="0.8" decel="4.5" sigma="0.5" length="3.6" minGap="0.5" maxSpeed="40" carFollowModel="Wiedemann" guiShape="passenger" width="1.5" latAlignment="left" laneChangeModel="SL2015" lcStrategic="0.5" lcCooperative="0.0"/>
<vType id="emergency" accel="2.8" decel="5.5" sigma="0.5" length="3.6" minGap="0.5" maxSpeed="120.6" carFollowModel="Wiedemann" guiShape="emergency" width="1.5" latAlignment="left" laneChangeModel="SL2015" lcStrategic="0.5" lcCooperative="0.0" vClass="emergency" speedFactor="1.9" jmDriveAfterRedTime="300" jmDriveAfterRedSpeed="5.56">
<param key="has.bluelight.device" value="true"/>
<param key="has.fcd.device" value="true"/> 
</vType>
<route id="route_0" edges="1i 52i gneE0 gneE2" />
<route id="route_1" edges="-gneE2 -gneE0 52o 2i 1o" />
        <route id="route_2" edges="4i 3o" />
        <route id="route_3" edges="3i 4o" />
        <route id="route_4" edges="-gneE1 gneE3" /> 
        <route id="route_5" edges="4i 1o" />
        <route id="route_6" edges="4i 2o 52i gneE0 gneE1" />
        <route id="route_7" edges="2i 4o" />
        <route id="route_8" edges="2i 3o" />
        <route id="route_9" edges="-gneE1 gneE3" />
        <route id="route_10" edges="3i 2o 52i gneE0 gneE3" />
        <route id="route_11" edges="3i 1o" />
        <route id="route_12" edges="-gneE1 -gneE0 52o 2i 4o" />
        <route id="route_13" edges="-gneE1 gneE2" />
        <route id="route_14" edges="-gneE2 gneE1" />
        <route id="route_15" edges="-gneE2 gneE3" />
        <route id="route_16" edges="-gneE3 -gneE0 52o 2i 3o" />
        <route id="route_17" edges="-gneE3 gneE2" />
        <route id="route_18" edges="gneE0 gneE3" />
        <route id="route_19" edges="gneE0 gneE1" />
        <route id="route_20" edges="1i 2o 52i gneE0 gneE2 -gneE4 gneE5" />
        <route id="route_21" edges="-gneE5 gneE4 -gneE2 -gneE0 52o 2i 1o" />
        <route id="route_22" edges="-gneE5 gneE4 -gneE2 -gneE0 52o 2i 3o" />
        <route id="route_23" edges="1i 2o 52i gneE0 gneE2 -gneE4 gneE7" />

	<route id="route_24" edges="gneE0"/>
<vehicle id="emergency_0" type="emergency" route="route_21" depart="0" />
<vehicle id="Bus_0" type="Bus" route="route_21" depart="0" />
<vehicle id="Car_0" type="Car" route="route_3" depart="0" />
<vehicle id="Car_1" type="Auto" route="route_9" depart="1" />
<vehicle id="Bus_2" type="MotorCycle" route="route_20" depart="1" />
<vehicle id="Auto_3" type="MotorCycle" route="route_22" depart="1" />
<vehicle id="Bus_4" type="Car" route="route_20" depart="2" />
<vehicle id="Car_5" type="Car" route="route_21" depart="2" />
<vehicle id="Car_6" type="MotorCycle" route="route_24" depart="2" />
<vehicle id="Bus_7" type="MotorCycle" route="route_7" depart="3" />
<vehicle id="Bus_8" type="Car" route="route_7" depart="3" />
<vehicle id="Auto_9" type="MotorCycle" route="route_20" depart="3" />
<vehicle id="Auto_10" type="MotorCycle" route="route_22" depart="3" />
<vehicle id="Car_11" type="Auto" route="route_23" depart="3" />
<vehicle id="Car_12" type="MotorCycle" route="route_23" depart="3" />
<vehicle id="Bus_13" type="MotorCycle" route="route_19" depart="5" />
<vehicle id="Auto_14" type="MotorCycle" route="route_23" depart="5" />
<vehicle id="Car_15" type="MotorCycle" route="route_24" depart="5" />
<vehicle id="Auto_16" type="MotorCycle" route="route_5" depart="7" />
<vehicle id="MotorCycle_17" type="MotorCycle" route="route_19" depart="7" />
<vehicle id="Car_18" type="MotorCycle" route="route_20" depart="7" />
<vehicle id="Bus_19" type="MotorCycle" route="route_21" depart="7" />
<vehicle id="MotorCycle_20" type="MotorCycle" route="route_22" depart="7" />
<vehicle id="Auto_21" type="MotorCycle" route="route_24" depart="7" />
<vehicle id="Auto_22" type="Car" route="route_24" depart="7" />
<vehicle id="Bus_23" type="MotorCycle" route="route_21" depart="8" />
<vehicle id="Car_24" type="MotorCycle" route="route_22" depart="9" />
<vehicle id="Auto_25" type="Auto" route="route_23" depart="9" />
<vehicle id="Auto_26" type="MotorCycle" route="route_23" depart="9" />
<vehicle id="MotorCycle_27" type="MotorCycle" route="route_7" depart="10" />
<vehicle id="MotorCycle_28" type="MotorCycle" route="route_10" depart="10" />
<vehicle id="Auto_29" type="MotorCycle" route="route_4" depart="11" />
<vehicle id="Bus_30" type="MotorCycle" route="route_5" depart="11" />
<vehicle id="Car_31" type="MotorCycle" route="route_8" depart="11" />
<vehicle id="Auto_32" type="Car" route="route_11" depart="11" />
<vehicle id="Bus_33" type="MotorCycle" route="route_21" depart="11" />
<vehicle id="Bus_34" type="Car" route="route_21" depart="11" />
<vehicle id="Auto_35" type="MotorCycle" route="route_9" depart="12" />
<vehicle id="Bus_36" type="MotorCycle" route="route_21" depart="12" />
<vehicle id="Bus_37" type="Car" route="route_21" depart="12" />
<vehicle id="Car_38" type="MotorCycle" route="route_23" depart="13" />
<vehicle id="MotorCycle_39" type="MotorCycle" route="route_10" depart="14" />
<vehicle id="Auto_40" type="MotorCycle" route="route_20" depart="14" />
<vehicle id="MotorCycle_41" type="MotorCycle" route="route_21" depart="14" />
<vehicle id="MotorCycle_42" type="MotorCycle" route="route_24" depart="14" />
<vehicle id="MotorCycle_43" type="MotorCycle" route="route_11" depart="15" />
<vehicle id="MotorCycle_44" type="Car" route="route_11" depart="15" />
<vehicle id="Auto_45" type="MotorCycle" route="route_21" depart="15" />
<vehicle id="Car_46" type="MotorCycle" route="route_21" depart="16" />
<vehicle id="Auto_47" type="MotorCycle" route="route_22" depart="16" />
<vehicle id="MotorCycle_48" type="MotorCycle" route="route_24" depart="16" />
<vehicle id="Auto_49" type="MotorCycle" route="route_23" depart="17" />
<vehicle id="Car_50" type="Auto" route="route_8" depart="19" />
<vehicle id="Car_51" type="MotorCycle" route="route_8" depart="19" />
<vehicle id="Bus_52" type="MotorCycle" route="route_12" depart="19" />
<vehicle id="Auto_53" type="MotorCycle" route="route_21" depart="19" />
<vehicle id="Car_54" type="MotorCycle" route="route_22" depart="19" />
<vehicle id="Auto_55" type="Car" route="route_23" depart="19" />
<vehicle id="Car_56" type="MotorCycle" route="route_24" depart="19" />
<vehicle id="Car_57" type="MotorCycle" route="route_22" depart="20" />
<vehicle id="Auto_58" type="Auto" route="route_8" depart="21" />
<vehicle id="Auto_59" type="MotorCycle" route="route_8" depart="21" />
<vehicle id="Bus_60" type="MotorCycle" route="route_21" depart="21" />
<vehicle id="Car_61" type="MotorCycle" route="route_4" depart="22" />
<vehicle id="MotorCycle_62" type="MotorCycle" route="route_22" depart="22" />
<vehicle id="MotorCycle_63" type="MotorCycle" route="route_19" depart="23" />
<vehicle id="Bus_64" type="MotorCycle" route="route_23" depart="23" />
<vehicle id="Bus_65" type="Car" route="route_23" depart="23" />
<vehicle id="Auto_66" type="MotorCycle" route="route_10" depart="24" />
<vehicle id="Car_67" type="Car" route="route_19" depart="24" />
<vehicle id="Car_68" type="Auto" route="route_22" depart="24" />
<vehicle id="Car_69" type="MotorCycle" route="route_22" depart="24" />
<vehicle id="Car_70" type="Car" route="route_22" depart="24" />
<vehicle id="MotorCycle_71" type="MotorCycle" route="route_24" depart="24" />
<vehicle id="MotorCycle_72" type="MotorCycle" route="route_11" depart="25" />
<vehicle id="MotorCycle_73" type="MotorCycle" route="route_19" depart="25" />
<vehicle id="Bus_74" type="MotorCycle" route="route_20" depart="25" />
<vehicle id="MotorCycle_75" type="MotorCycle" route="route_21" depart="25" />
<vehicle id="MotorCycle_76" type="Car" route="route_21" depart="25" />
<vehicle id="Bus_77" type="MotorCycle" route="route_13" depart="26" />
<vehicle id="Car_78" type="MotorCycle" route="route_19" depart="26" />
<vehicle id="MotorCycle_79" type="MotorCycle" route="route_21" depart="26" />
<vehicle id="Auto_80" type="Auto" route="route_22" depart="26" />
<vehicle id="Auto_81" type="MotorCycle" route="route_22" depart="26" />
<vehicle id="Car_82" type="Car" route="route_24" depart="26" />
<vehicle id="Bus_83" type="MotorCycle" route="route_3" depart="27" />
<vehicle id="Bus_84" type="Bus" route="route_5" depart="27" />
<vehicle id="Bus_85" type="MotorCycle" route="route_5" depart="27" />
<vehicle id="Auto_86" type="MotorCycle" route="route_19" depart="27" />
<vehicle id="Auto_87" type="Car" route="route_19" depart="27" />
<vehicle id="Bus_88" type="MotorCycle" route="route_22" depart="27" />
<vehicle id="Car_89" type="Auto" route="route_21" depart="28" />
<vehicle id="Car_90" type="MotorCycle" route="route_21" depart="28" />
<vehicle id="Auto_91" type="MotorCycle" route="route_22" depart="28" />
<vehicle id="Auto_92" type="MotorCycle" route="route_24" depart="28" />
<vehicle id="Bus_93" type="Auto" route="route_4" depart="29" />
<vehicle id="Bus_94" type="MotorCycle" route="route_4" depart="29" />
<vehicle id="Car_95" type="MotorCycle" route="route_9" depart="29" />
<vehicle id="MotorCycle_96" type="MotorCycle" route="route_21" depart="29" />
<vehicle id="Auto_97" type="MotorCycle" route="route_22" depart="29" />
<vehicle id="MotorCycle_98" type="Car" route="route_23" depart="29" />
<vehicle id="Bus_99" type="Car" route="route_24" depart="29" />
<vehicle id="MotorCycle_100" type="MotorCycle" route="route_22" depart="31" />
<vehicle id="Auto_101" type="MotorCycle" route="route_19" depart="32" />
<vehicle id="Auto_102" type="MotorCycle" route="route_20" depart="32" />
<vehicle id="MotorCycle_103" type="MotorCycle" route="route_14" depart="33" />
<vehicle id="MotorCycle_104" type="Car" route="route_14" depart="33" />
<vehicle id="Car_105" type="MotorCycle" route="route_21" depart="33" />
<vehicle id="Car_106" type="MotorCycle" route="route_23" depart="33" />
<vehicle id="Car_107" type="MotorCycle" route="route_24" depart="33" />
<vehicle id="Auto_108" type="MotorCycle" route="route_19" depart="34" />
<vehicle id="Bus_109" type="MotorCycle" route="route_20" depart="34" />
<vehicle id="Car_110" type="MotorCycle" route="route_21" depart="34" />
<vehicle id="Car_111" type="MotorCycle" route="route_22" depart="34" />
<vehicle id="MotorCycle_112" type="MotorCycle" route="route_1" depart="35" />
<vehicle id="Auto_113" type="MotorCycle" route="route_6" depart="35" />
<vehicle id="Bus_114" type="MotorCycle" route="route_7" depart="35" />
<vehicle id="Car_115" type="MotorCycle" route="route_23" depart="37" />
<vehicle id="Auto_116" type="MotorCycle" route="route_11" depart="38" />
<vehicle id="Auto_117" type="MotorCycle" route="route_21" depart="38" />
<vehicle id="Auto_118" type="Car" route="route_21" depart="38" />
<vehicle id="Auto_119" type="MotorCycle" route="route_5" depart="39" />
<vehicle id="MotorCycle_120" type="MotorCycle" route="route_21" depart="39" />
<vehicle id="MotorCycle_121" type="Car" route="route_21" depart="39" />
<vehicle id="Car_122" type="MotorCycle" route="route_22" depart="39" />
<vehicle id="Bus_123" type="MotorCycle" route="route_23" depart="39" />
<vehicle id="Car_124" type="MotorCycle" route="route_20" depart="40" />
<vehicle id="Bus_125" type="MotorCycle" route="route_21" depart="40" />
<vehicle id="Auto_126" type="MotorCycle" route="route_22" depart="40" />
<vehicle id="Car_127" type="MotorCycle" route="route_24" depart="40" />
<vehicle id="Auto_128" type="MotorCycle" route="route_4" depart="41" />
<vehicle id="Car_129" type="MotorCycle" route="route_21" depart="41" />
<vehicle id="Bus_130" type="MotorCycle" route="route_22" depart="41" />
<vehicle id="Bus_131" type="Auto" route="route_16" depart="42" />
<vehicle id="Bus_132" type="MotorCycle" route="route_16" depart="42" />
<vehicle id="Bus_133" type="Car" route="route_16" depart="42" />
<vehicle id="Auto_134" type="MotorCycle" route="route_19" depart="42" />
<vehicle id="Auto_135" type="Car" route="route_19" depart="42" />
<vehicle id="Auto_136" type="MotorCycle" route="route_22" depart="44" />
<vehicle id="MotorCycle_137" type="MotorCycle" route="route_10" depart="45" />
<vehicle id="MotorCycle_138" type="MotorCycle" route="route_17" depart="45" />
<vehicle id="Bus_139" type="MotorCycle" route="route_19" depart="46" />
<vehicle id="Auto_140" type="MotorCycle" route="route_23" depart="46" />
<vehicle id="Bus_141" type="MotorCycle" route="route_21" depart="47" />
<vehicle id="Bus_142" type="Car" route="route_21" depart="47" />
<vehicle id="MotorCycle_143" type="MotorCycle" route="route_19" depart="48" />
<vehicle id="Car_144" type="MotorCycle" route="route_22" depart="48" />
<vehicle id="Bus_145" type="MotorCycle" route="route_23" depart="48" />
<vehicle id="Auto_146" type="MotorCycle" route="route_19" depart="49" />
<vehicle id="MotorCycle_147" type="MotorCycle" route="route_22" depart="49" />
<vehicle id="Auto_148" type="Bus" route="route_23" depart="49" />
<vehicle id="Auto_149" type="Auto" route="route_23" depart="49" />
<vehicle id="Auto_150" type="MotorCycle" route="route_23" depart="49" />
<vehicle id="MotorCycle_151" type="MotorCycle" route="route_24" depart="49" />
<vehicle id="Car_152" type="MotorCycle" route="route_9" depart="50" />
<vehicle id="Car_153" type="MotorCycle" route="route_16" depart="50" />
<vehicle id="Auto_154" type="MotorCycle" route="route_21" depart="50" />
<vehicle id="Car_155" type="MotorCycle" route="route_22" depart="50" />
<vehicle id="Bus_156" type="MotorCycle" route="route_1" depart="51" />
<vehicle id="Bus_157" type="MotorCycle" route="route_21" depart="51" />
<vehicle id="Bus_158" type="Auto" route="route_22" depart="51" />
<vehicle id="Bus_159" type="MotorCycle" route="route_22" depart="51" />
<vehicle id="Bus_160" type="MotorCycle" route="route_24" depart="51" />
<vehicle id="Car_161" type="MotorCycle" route="route_21" depart="52" />
<vehicle id="Car_162" type="Car" route="route_21" depart="52" />
<vehicle id="Bus_163" type="MotorCycle" route="route_21" depart="53" />
<vehicle id="Car_164" type="MotorCycle" route="route_22" depart="53" />
<vehicle id="Car_165" type="MotorCycle" route="route_6" depart="54" />
<vehicle id="Car_166" type="MotorCycle" route="route_22" depart="54" />
<vehicle id="MotorCycle_167" type="MotorCycle" route="route_11" depart="55" />
<vehicle id="Bus_168" type="Bus" route="route_23" depart="55" />
<vehicle id="Bus_169" type="MotorCycle" route="route_23" depart="55" />
<vehicle id="Bus_170" type="MotorCycle" route="route_24" depart="56" />
<vehicle id="Bus_171" type="Car" route="route_24" depart="56" />
<vehicle id="Auto_172" type="MotorCycle" route="route_19" depart="57" />
<vehicle id="MotorCycle_173" type="Car" route="route_13" depart="58" />
<vehicle id="Car_174" type="MotorCycle" route="route_5" depart="59" />
<vehicle id="Bus_175" type="Car" route="route_12" depart="59" />
<vehicle id="Car_176" type="MotorCycle" route="route_15" depart="59" />
<vehicle id="Auto_177" type="MotorCycle" route="route_16" depart="59" />
<vehicle id="Bus_178" type="MotorCycle" route="route_22" depart="59" />
<vehicle id="Bus_179" type="Car" route="route_22" depart="59" />
<vehicle id="Bus_180" type="MotorCycle" route="route_24" depart="59" />
<vehicle id="Bus_181" type="MotorCycle" route="route_12" depart="60" />
<vehicle id="Bus_182" type="Car" route="route_12" depart="60" />
<vehicle id="Car_183" type="MotorCycle" route="route_23" depart="60" />
<vehicle id="Car_184" type="Car" route="route_23" depart="60" />
<vehicle id="Car_185" type="Auto" route="route_15" depart="61" />
<vehicle id="Car_186" type="MotorCycle" route="route_15" depart="61" />
<vehicle id="MotorCycle_187" type="MotorCycle" route="route_19" depart="61" />
<vehicle id="Auto_188" type="MotorCycle" route="route_21" depart="61" />
<vehicle id="MotorCycle_189" type="MotorCycle" route="route_22" depart="61" />
<vehicle id="Car_190" type="MotorCycle" route="route_21" depart="62" />
<vehicle id="Car_191" type="Car" route="route_21" depart="62" />
<vehicle id="Car_192" type="Car" route="route_24" depart="62" />
<vehicle id="Auto_193" type="MotorCycle" route="route_7" depart="63" />
<vehicle id="MotorCycle_194" type="MotorCycle" route="route_19" depart="63" />
<vehicle id="Auto_195" type="MotorCycle" route="route_20" depart="63" />
<vehicle id="MotorCycle_196" type="MotorCycle" route="route_21" depart="63" />
<vehicle id="Bus_197" type="MotorCycle" route="route_22" depart="63" />
<vehicle id="Bus_198" type="Car" route="route_22" depart="63" />
<vehicle id="Auto_199" type="MotorCycle" route="route_20" depart="64" />
<vehicle id="Auto_200" type="Car" route="route_20" depart="64" />
<vehicle id="Bus_201" type="MotorCycle" route="route_21" depart="65" />
<vehicle id="MotorCycle_202" type="Auto" route="route_23" depart="65" />
<vehicle id="Car_203" type="MotorCycle" route="route_19" depart="66" />
<vehicle id="Car_204" type="MotorCycle" route="route_6" depart="67" />
<vehicle id="Car_205" type="Car" route="route_6" depart="67" />
<vehicle id="MotorCycle_206" type="Auto" route="route_20" depart="67" />
<vehicle id="MotorCycle_207" type="MotorCycle" route="route_20" depart="67" />
<vehicle id="Auto_208" type="MotorCycle" route="route_2" depart="68" />
<vehicle id="MotorCycle_209" type="MotorCycle" route="route_13" depart="68" />
<vehicle id="MotorCycle_210" type="Car" route="route_13" depart="68" />
<vehicle id="Car_211" type="MotorCycle" route="route_21" depart="68" />
<vehicle id="Bus_212" type="MotorCycle" route="route_20" depart="69" />
<vehicle id="MotorCycle_213" type="MotorCycle" route="route_22" depart="69" />
<vehicle id="Bus_214" type="MotorCycle" route="route_23" depart="69" />
<vehicle id="Car_215" type="MotorCycle" route="route_24" depart="69" />
<vehicle id="Car_216" type="MotorCycle" route="route_20" depart="70" />
<vehicle id="Car_217" type="Car" route="route_20" depart="70" />
<vehicle id="Car_218" type="MotorCycle" route="route_22" depart="72" />
<vehicle id="Car_219" type="Car" route="route_22" depart="72" />
<vehicle id="Car_220" type="MotorCycle" route="route_4" depart="74" />
<vehicle id="Bus_221" type="MotorCycle" route="route_22" depart="74" />
<vehicle id="Car_222" type="Auto" route="route_23" depart="74" />
<vehicle id="Auto_223" type="MotorCycle" route="route_19" depart="75" />
<vehicle id="Car_224" type="MotorCycle" route="route_20" depart="75" />
<vehicle id="Car_225" type="MotorCycle" route="route_21" depart="75" />
<vehicle id="Car_226" type="MotorCycle" route="route_22" depart="75" />
<vehicle id="Auto_227" type="Auto" route="route_23" depart="75" />
<vehicle id="Auto_228" type="MotorCycle" route="route_23" depart="75" />
<vehicle id="MotorCycle_229" type="MotorCycle" route="route_22" depart="76" />
<vehicle id="Auto_230" type="Car" route="route_24" depart="76" />
<vehicle id="Car_231" type="MotorCycle" route="route_12" depart="77" />
<vehicle id="Auto_232" type="MotorCycle" route="route_19" depart="77" />
<vehicle id="Auto_233" type="Car" route="route_19" depart="77" />
<vehicle id="Car_234" type="MotorCycle" route="route_24" depart="77" />
<vehicle id="Auto_235" type="MotorCycle" route="route_19" depart="78" />
<vehicle id="Car_236" type="Car" route="route_19" depart="79" />
<vehicle id="Auto_237" type="MotorCycle" route="route_21" depart="79" />
<vehicle id="Bus_238" type="Auto" route="route_23" depart="79" />
<vehicle id="Bus_239" type="MotorCycle" route="route_23" depart="79" />
<vehicle id="MotorCycle_240" type="MotorCycle" route="route_24" depart="79" />
<vehicle id="MotorCycle_241" type="MotorCycle" route="route_4" depart="80" />
<vehicle id="MotorCycle_242" type="Bus" route="route_8" depart="81" />
<vehicle id="MotorCycle_243" type="MotorCycle" route="route_8" depart="81" />
<vehicle id="MotorCycle_244" type="Car" route="route_8" depart="81" />
<vehicle id="MotorCycle_245" type="MotorCycle" route="route_9" depart="81" />
<vehicle id="Car_246" type="Car" route="route_20" depart="81" />
<vehicle id="Auto_247" type="MotorCycle" route="route_22" depart="81" />
<vehicle id="Auto_248" type="MotorCycle" route="route_23" depart="81" />
<vehicle id="Auto_249" type="Car" route="route_23" depart="81" />
<vehicle id="Auto_250" type="MotorCycle" route="route_21" depart="82" />
<vehicle id="Bus_251" type="MotorCycle" route="route_21" depart="83" />
<vehicle id="Bus_252" type="MotorCycle" route="route_22" depart="83" />
<vehicle id="Car_253" type="MotorCycle" route="route_2" depart="84" />
<vehicle id="Auto_254" type="MotorCycle" route="route_14" depart="84" />
<vehicle id="Auto_255" type="Car" route="route_14" depart="84" />
<vehicle id="MotorCycle_256" type="MotorCycle" route="route_20" depart="84" />
<vehicle id="Car_257" type="Auto" route="route_22" depart="84" />
<vehicle id="Car_258" type="MotorCycle" route="route_23" depart="84" />
<vehicle id="MotorCycle_259" type="Auto" route="route_24" depart="84" />
<vehicle id="MotorCycle_260" type="MotorCycle" route="route_24" depart="84" />
<vehicle id="MotorCycle_261" type="Car" route="route_24" depart="84" />
<vehicle id="Car_262" type="Car" route="route_19" depart="85" />
<vehicle id="Bus_263" type="MotorCycle" route="route_22" depart="85" />
<vehicle id="MotorCycle_264" type="MotorCycle" route="route_23" depart="85" />
<vehicle id="Auto_265" type="MotorCycle" route="route_4" depart="86" />
<vehicle id="Car_266" type="MotorCycle" route="route_12" depart="86" />
<vehicle id="Car_267" type="MotorCycle" route="route_19" depart="86" />
<vehicle id="Car_268" type="Car" route="route_12" depart="87" />
<vehicle id="MotorCycle_269" type="MotorCycle" route="route_21" depart="87" />
<vehicle id="Auto_270" type="MotorCycle" route="route_20" depart="88" />
<vehicle id="Bus_271" type="MotorCycle" route="route_21" depart="88" />
<vehicle id="Bus_272" type="Car" route="route_21" depart="88" />
<vehicle id="Auto_273" type="MotorCycle" route="route_22" depart="88" />
<vehicle id="MotorCycle_274" type="MotorCycle" route="route_22" depart="89" />
<vehicle id="MotorCycle_275" type="MotorCycle" route="route_23" depart="89" />
<vehicle id="MotorCycle_276" type="Car" route="route_23" depart="89" />
<vehicle id="Auto_277" type="MotorCycle" route="route_11" depart="90" />
<vehicle id="Car_278" type="MotorCycle" route="route_22" depart="91" />
<vehicle id="Car_279" type="MotorCycle" route="route_10" depart="92" />
<vehicle id="Car_280" type="Auto" route="route_19" depart="92" />
<vehicle id="Car_281" type="MotorCycle" route="route_19" depart="92" />
<vehicle id="Car_282" type="Car" route="route_19" depart="92" />
<vehicle id="Auto_283" type="MotorCycle" route="route_21" depart="92" />
<vehicle id="Car_284" type="MotorCycle" route="route_21" depart="93" />
<vehicle id="Bus_285" type="MotorCycle" route="route_24" depart="93" />
<vehicle id="Auto_286" type="MotorCycle" route="route_17" depart="94" />
<vehicle id="Auto_287" type="Car" route="route_17" depart="94" />
<vehicle id="Auto_288" type="Car" route="route_20" depart="94" />
<vehicle id="Car_289" type="MotorCycle" route="route_21" depart="94" />
<vehicle id="Car_290" type="MotorCycle" route="route_1" depart="95" />
<vehicle id="Car_291" type="Auto" route="route_2" depart="95" />
<vehicle id="Car_292" type="MotorCycle" route="route_2" depart="95" />
<vehicle id="Bus_293" type="Auto" route="route_3" depart="95" />
<vehicle id="Bus_294" type="MotorCycle" route="route_3" depart="95" />
<vehicle id="Car_295" type="MotorCycle" route="route_4" depart="95" />
<vehicle id="MotorCycle_296" type="MotorCycle" route="route_19" depart="95" />
<vehicle id="MotorCycle_297" type="MotorCycle" route="route_21" depart="95" />
<vehicle id="Bus_298" type="MotorCycle" route="route_22" depart="95" />
<vehicle id="MotorCycle_299" type="MotorCycle" route="route_19" depart="96" />
<vehicle id="Car_300" type="MotorCycle" route="route_23" depart="96" />
<vehicle id="Bus_301" type="MotorCycle" route="route_11" depart="97" />
<vehicle id="Auto_302" type="MotorCycle" route="route_21" depart="97" />
<vehicle id="Bus_303" type="MotorCycle" route="route_22" depart="97" />
<vehicle id="Auto_304" type="MotorCycle" route="route_23" depart="97" />
<vehicle id="Auto_305" type="Car" route="route_23" depart="97" />
<vehicle id="MotorCycle_306" type="Auto" route="route_24" depart="97" />
<vehicle id="MotorCycle_307" type="MotorCycle" route="route_24" depart="97" />
<vehicle id="Auto_308" type="MotorCycle" route="route_21" depart="98" />
<vehicle id="Auto_309" type="Car" route="route_21" depart="98" />
<vehicle id="Auto_310" type="MotorCycle" route="route_24" depart="99" />
<vehicle id="Auto_311" type="MotorCycle" route="route_6" depart="100" />
<vehicle id="Auto_312" type="Car" route="route_6" depart="100" />
<vehicle id="Bus_313" type="MotorCycle" route="route_22" depart="100" />
<vehicle id="Car_314" type="Auto" route="route_2" depart="101" />
<vehicle id="Car_315" type="MotorCycle" route="route_2" depart="101" />
<vehicle id="Bus_316" type="MotorCycle" route="route_18" depart="101" />
<vehicle id="Car_317" type="MotorCycle" route="route_22" depart="101" />
<vehicle id="MotorCycle_318" type="MotorCycle" route="route_24" depart="101" />
<vehicle id="MotorCycle_319" type="MotorCycle" route="route_22" depart="102" />
<vehicle id="Car_320" type="MotorCycle" route="route_24" depart="102" />
<vehicle id="MotorCycle_321" type="MotorCycle" route="route_10" depart="103" />
<vehicle id="Car_322" type="MotorCycle" route="route_16" depart="103" />
<vehicle id="Bus_323" type="MotorCycle" route="route_22" depart="103" />
<vehicle id="Auto_324" type="MotorCycle" route="route_24" depart="103" />
<vehicle id="MotorCycle_325" type="MotorCycle" route="route_19" depart="104" />
<vehicle id="Car_326" type="MotorCycle" route="route_21" depart="104" />
<vehicle id="Auto_327" type="MotorCycle" route="route_22" depart="104" />
<vehicle id="Auto_328" type="Auto" route="route_24" depart="104" />
<vehicle id="Auto_329" type="MotorCycle" route="route_24" depart="104" />
<vehicle id="Auto_330" type="MotorCycle" route="route_21" depart="105" />
<vehicle id="Bus_331" type="MotorCycle" route="route_22" depart="105" />
<vehicle id="MotorCycle_332" type="MotorCycle" route="route_24" depart="105" />
<vehicle id="Auto_333" type="Car" route="route_2" depart="106" />
<vehicle id="Bus_334" type="Auto" route="route_12" depart="106" />
<vehicle id="Bus_335" type="MotorCycle" route="route_12" depart="106" />
<vehicle id="Car_336" type="MotorCycle" route="route_22" depart="107" />
<vehicle id="MotorCycle_337" type="MotorCycle" route="route_24" depart="107" />
<vehicle id="MotorCycle_338" type="Car" route="route_24" depart="107" />
<vehicle id="Auto_339" type="MotorCycle" route="route_20" depart="108" />
<vehicle id="Car_340" type="MotorCycle" route="route_23" depart="108" />
<vehicle id="Car_341" type="MotorCycle" route="route_19" depart="109" />
<vehicle id="Car_342" type="Car" route="route_19" depart="109" />
<vehicle id="MotorCycle_343" type="MotorCycle" route="route_4" depart="110" />
<vehicle id="Auto_344" type="MotorCycle" route="route_20" depart="110" />
<vehicle id="Auto_345" type="Car" route="route_20" depart="110" />
<vehicle id="Bus_346" type="MotorCycle" route="route_21" depart="111" />
<vehicle id="Bus_347" type="MotorCycle" route="route_3" depart="112" />
<vehicle id="Bus_348" type="Car" route="route_3" depart="112" />
<vehicle id="Bus_349" type="MotorCycle" route="route_19" depart="112" />
<vehicle id="Bus_350" type="MotorCycle" route="route_20" depart="112" />
<vehicle id="Bus_351" type="Car" route="route_20" depart="112" />
<vehicle id="Bus_352" type="MotorCycle" route="route_22" depart="112" />
<vehicle id="MotorCycle_353" type="MotorCycle" route="route_23" depart="112" />
<vehicle id="Bus_354" type="Auto" route="route_22" depart="113" />
<vehicle id="Bus_355" type="MotorCycle" route="route_22" depart="113" />
<vehicle id="MotorCycle_356" type="MotorCycle" route="route_23" depart="113" />
<vehicle id="Bus_357" type="MotorCycle" route="route_19" depart="114" />
<vehicle id="Bus_358" type="MotorCycle" route="route_20" depart="114" />
<vehicle id="Car_359" type="Car" route="route_22" depart="114" />
<vehicle id="Auto_360" type="MotorCycle" route="route_24" depart="114" />
<vehicle id="MotorCycle_361" type="MotorCycle" route="route_19" depart="115" />
<vehicle id="MotorCycle_362" type="Car" route="route_19" depart="115" />
<vehicle id="Auto_363" type="MotorCycle" route="route_24" depart="115" />
<vehicle id="Auto_364" type="Car" route="route_24" depart="115" />
<vehicle id="Bus_365" type="MotorCycle" route="route_2" depart="116" />
<vehicle id="Car_366" type="MotorCycle" route="route_21" depart="116" />
<vehicle id="Car_367" type="Car" route="route_21" depart="116" />
<vehicle id="MotorCycle_368" type="MotorCycle" route="route_22" depart="116" />
<vehicle id="Car_369" type="MotorCycle" route="route_21" depart="117" />
<vehicle id="Car_370" type="Car" route="route_21" depart="117" />
<vehicle id="MotorCycle_371" type="MotorCycle" route="route_24" depart="117" />
<vehicle id="Auto_372" type="MotorCycle" route="route_22" depart="118" />
<vehicle id="Car_373" type="MotorCycle" route="route_23" depart="118" />
<vehicle id="Auto_374" type="MotorCycle" route="route_22" depart="119" />
<vehicle id="Auto_375" type="Car" route="route_22" depart="119" />
<vehicle id="Bus_376" type="MotorCycle" route="route_19" depart="120" />
<vehicle id="Bus_377" type="MotorCycle" route="route_20" depart="120" />