<routes>
<vType id="Bus" accel="0.6" decel="3.5" sigma="0.5" length="10.1" minGap="1.0" maxSpeed="16.67" carFollowModel="Wiedemann" guiShape="bus" width="2.45" latAlignment="left" laneChangeModel="SL2015" lcStrategic="0.5" lcCooperative="0.0"/>
<vType id="Auto" accel="0.7" decel="4.5" sigma="0.5" length="2.6" minGap="0.3" maxSpeed="16" carFollowModel="Wiedemann" guiShape="passenger/sedan" width="1.25" latAlignment="left" laneChangeModel="SL2015" lcStrategic="0.5" lcCooperative="0.0" />
<vType id="MotorCycle" accel="0.9" decel="3.5" sigma="0.5" length="1.85" minGap="0.15"  carFollowModel="Wiedemann" maxSpeed="17" guiShape="motorcycle" width="0.7" latAlignment="left" laneChangeModel="SL2015" lcStrategic="0.5" lcCooperative="0.0"/>
<vType id="Car" accel="0.8" decel="4.5" sigma="0.5" length="3.6" minGap="0.5" maxSpeed="40" carFollowModel="Wiedemann" guiShape="passenger" width="1.5" latAlignment="left" laneChangeModel="SL2015" lcStrategic="0.5" lcCooperative="0.0"/>
<vType id="emergency" accel="2.8" decel="5.5" sigma="0.5" length="3.6" minGap="0.5" maxSpeed="120.6" carFollowModel="Wiedemann" guiShape="emergency" width="1.5" latAlignment="left" laneChangeModel="SL2015" lcStrategic="0.5" lcCooperative="0.0" vClass="emergency" speedFactor="1.9" jmDriveAfterRedTime="300" jmDriveAfterRedSpeed="5.56">
<param key="has.bluelight.device" value="true"/>
<param key="has.fcd.device" value="true"/> 
</vType>
<route id="route_0" edges="1i 52i gneE0 gneE2" />
<route id="route_1" edges="-gneE2 -gneE0 52o 2i 1o" />
        <route id="route_2" edges="4i 3o" />
        <route id="route_3" edges="3i 4o" />
        <route id="route_4" edges="-gneE1 gneE3" /> 
        <route id="route_5" edges="4i 1o" />
        <route id="route_6" edges="4i 2o 52i gneE0 gneE1" />
        <route id="route_7" edges="2i 4o" />
        <route id="route_8" edges="2i 3o" />
        <route id="route_9" edges="-gneE1 gneE3" />
        <route id="route_10" edges="3i 2o 52i gneE0 gneE3" />
        <route id="route_11" edges="3i 1o" />
        <route id="route_12" edges="-gneE1 -gneE0 52o 2i 4o" />
        <route id="route_13" edges="-gneE1 gneE2" />
        <route id="route_14" edges="-gneE2 gneE1" />
        <route id="route_15" edges="-gneE2 gneE3" />
        <route id="route_16" edges="-gneE3 -gneE0 52o 2i 3o" />
        <route id="route_17" edges="-gneE3 gneE2" />
        <route id="route_18" edges="gneE0 gneE3" />
        <route id="route_19" edges="gneE0 gneE1" />
        <route id="route_20" edges="1i 2o 52i gneE0 gneE2 -gneE4 gneE5" />
        <route id="route_21" edges="-gneE5 gneE4 -gneE2 -gneE0 52o 2i 1o" />
        <route id="route_22" edges="-gneE5 gneE4 -gneE2 -gneE0 52o 2i 3o" />
        <route id="route_23" edges="1i 2o 52i gneE0 gneE2 -gneE4 gneE7" />

	<route id="route_24" edges="gneE0"/>
<vehicle id="emergency_0" type="emergency" route="route_21" depart="0" />
<vehicle id="Bus_0" type="Bus" route="route_21" depart="0" />
<vehicle id="Car_0" type="Car" route="route_4" depart="0" />
<vehicle id="Car_1" type="MotorCycle" route="route_4" depart="1" />
<vehicle id="Car_2" type="MotorCycle" route="route_21" depart="2" />
<vehicle id="Car_3" type="MotorCycle" route="route_21" depart="3" />
<vehicle id="Auto_4" type="MotorCycle" route="route_22" depart="3" />
<vehicle id="Car_5" type="MotorCycle" route="route_24" depart="3" />
<vehicle id="Auto_6" type="MotorCycle" route="route_13" depart="4" />
<vehicle id="Bus_7" type="MotorCycle" route="route_22" depart="4" />
<vehicle id="Bus_8" type="MotorCycle" route="route_5" depart="5" />
<vehicle id="Car_9" type="MotorCycle" route="route_20" depart="5" />
<vehicle id="MotorCycle_10" type="MotorCycle" route="route_22" depart="5" />
<vehicle id="MotorCycle_11" type="MotorCycle" route="route_23" depart="5" />
<vehicle id="MotorCycle_12" type="MotorCycle" route="route_24" depart="5" />
<vehicle id="Car_13" type="MotorCycle" route="route_6" depart="6" />
<vehicle id="Car_14" type="Car" route="route_6" depart="6" />
<vehicle id="Bus_15" type="MotorCycle" route="route_10" depart="6" />
<vehicle id="Bus_16" type="MotorCycle" route="route_21" depart="6" />
<vehicle id="Bus_17" type="Car" route="route_21" depart="6" />
<vehicle id="MotorCycle_18" type="MotorCycle" route="route_11" depart="7" />
<vehicle id="Car_19" type="MotorCycle" route="route_21" depart="7" />
<vehicle id="MotorCycle_20" type="Bus" route="route_22" depart="7" />
<vehicle id="MotorCycle_21" type="MotorCycle" route="route_22" depart="7" />
<vehicle id="Car_22" type="MotorCycle" route="route_19" depart="8" />
<vehicle id="Car_23" type="Car" route="route_19" depart="8" />
<vehicle id="Auto_24" type="Car" route="route_20" depart="8" />
<vehicle id="MotorCycle_25" type="MotorCycle" route="route_21" depart="8" />
<vehicle id="MotorCycle_26" type="MotorCycle" route="route_20" depart="9" />
<vehicle id="Car_27" type="MotorCycle" route="route_21" depart="9" />
<vehicle id="Car_28" type="MotorCycle" route="route_23" depart="9" />
<vehicle id="Auto_29" type="MotorCycle" route="route_1" depart="10" />
<vehicle id="Auto_30" type="Car" route="route_1" depart="10" />
<vehicle id="MotorCycle_31" type="MotorCycle" route="route_4" depart="11" />
<vehicle id="Car_32" type="MotorCycle" route="route_19" depart="11" />
<vehicle id="Car_33" type="Car" route="route_19" depart="11" />
<vehicle id="Car_34" type="Car" route="route_23" depart="11" />
<vehicle id="Auto_35" type="MotorCycle" route="route_3" depart="12" />
<vehicle id="MotorCycle_36" type="MotorCycle" route="route_21" depart="12" />
<vehicle id="MotorCycle_37" type="MotorCycle" route="route_23" depart="12" />
<vehicle id="Bus_38" type="MotorCycle" route="route_17" depart="13" />
<vehicle id="Bus_39" type="MotorCycle" route="route_21" depart="13" />
<vehicle id="Bus_40" type="MotorCycle" route="route_7" depart="14" />
<vehicle id="Car_41" type="MotorCycle" route="route_9" depart="14" />
<vehicle id="Car_42" type="MotorCycle" route="route_21" depart="14" />
<vehicle id="Car_43" type="Car" route="route_21" depart="14" />
<vehicle id="Car_44" type="MotorCycle" route="route_20" depart="15" />
<vehicle id="Bus_45" type="Car" route="route_22" depart="15" />
<vehicle id="Auto_46" type="Auto" route="route_14" depart="16" />
<vehicle id="Auto_47" type="MotorCycle" route="route_14" depart="16" />
<vehicle id="MotorCycle_48" type="MotorCycle" route="route_21" depart="16" />
<vehicle id="MotorCycle_49" type="MotorCycle" route="route_22" depart="16" />
<vehicle id="MotorCycle_50" type="Car" route="route_22" depart="16" />
<vehicle id="MotorCycle_51" type="MotorCycle" route="route_23" depart="16" />
<vehicle id="MotorCycle_52" type="MotorCycle" route="route_20" depart="17" />
<vehicle id="Bus_53" type="MotorCycle" route="route_24" depart="17" />
<vehicle id="MotorCycle_54" type="MotorCycle" route="route_20" depart="18" />
<vehicle id="Bus_55" type="MotorCycle" route="route_20" depart="19" />
<vehicle id="Auto_56" type="Car" route="route_21" depart="19" />
<vehicle id="Car_57" type="Car" route="route_22" depart="19" />
<vehicle id="Car_58" type="MotorCycle" route="route_24" depart="19" />
<vehicle id="Bus_59" type="MotorCycle" route="route_22" depart="20" />
<vehicle id="MotorCycle_60" type="MotorCycle" route="route_24" depart="20" />
<vehicle id="MotorCycle_61" type="Car" route="route_24" depart="20" />
<vehicle id="Car_62" type="MotorCycle" route="route_21" depart="21" />
<vehicle id="Car_63" type="Car" route="route_21" depart="21" />
<vehicle id="Car_64" type="MotorCycle" route="route_24" depart="21" />
<vehicle id="Auto_65" type="MotorCycle" route="route_3" depart="22" />
<vehicle id="MotorCycle_66" type="MotorCycle" route="route_19" depart="22" />
<vehicle id="Auto_67" type="MotorCycle" route="route_21" depart="22" />
<vehicle id="Auto_68" type="Car" route="route_21" depart="22" />
<vehicle id="Car_69" type="MotorCycle" route="route_22" depart="22" />
<vehicle id="MotorCycle_70" type="MotorCycle" route="route_24" depart="23" />
<vehicle id="Auto_71" type="MotorCycle" route="route_2" depart="24" />
<vehicle id="Auto_72" type="MotorCycle" route="route_12" depart="24" />
<vehicle id="MotorCycle_73" type="MotorCycle" route="route_21" depart="24" />
<vehicle id="Auto_74" type="MotorCycle" route="route_7" depart="25" />
<vehicle id="Bus_75" type="MotorCycle" route="route_19" depart="25" />
<vehicle id="Auto_76" type="Car" route="route_10" depart="26" />
<vehicle id="MotorCycle_77" type="MotorCycle" route="route_12" depart="26" />
<vehicle id="Auto_78" type="MotorCycle" route="route_5" depart="27" />
<vehicle id="Car_79" type="MotorCycle" route="route_19" depart="27" />
<vehicle id="MotorCycle_80" type="Auto" route="route_21" depart="27" />
<vehicle id="MotorCycle_81" type="MotorCycle" route="route_21" depart="27" />
<vehicle id="MotorCycle_82" type="Car" route="route_21" depart="27" />
<vehicle id="Auto_83" type="MotorCycle" route="route_14" depart="28" />
<vehicle id="Auto_84" type="MotorCycle" route="route_21" depart="29" />
<vehicle id="Auto_85" type="Car" route="route_23" depart="29" />
<vehicle id="Car_86" type="MotorCycle" route="route_24" depart="29" />
<vehicle id="Auto_87" type="MotorCycle" route="route_2" depart="30" />
<vehicle id="Auto_88" type="Car" route="route_2" depart="30" />
<vehicle id="Bus_89" type="MotorCycle" route="route_10" depart="30" />
<vehicle id="Car_90" type="MotorCycle" route="route_21" depart="30" />
<vehicle id="Car_91" type="Car" route="route_21" depart="30" />
<vehicle id="Car_92" type="MotorCycle" route="route_3" depart="31" />
<vehicle id="MotorCycle_93" type="MotorCycle" route="route_19" depart="31" />
<vehicle id="Bus_94" type="MotorCycle" route="route_21" depart="31" />
<vehicle id="MotorCycle_95" type="MotorCycle" route="route_23" depart="32" />
<vehicle id="Auto_96" type="Car" route="route_20" depart="33" />
<vehicle id="Bus_97" type="MotorCycle" route="route_21" depart="33" />
<vehicle id="MotorCycle_98" type="MotorCycle" route="route_22" depart="33" />
<vehicle id="Auto_99" type="MotorCycle" route="route_24" depart="33" />
<vehicle id="Auto_100" type="MotorCycle" route="route_9" depart="34" />
<vehicle id="Auto_101" type="MotorCycle" route="route_20" depart="34" />
<vehicle id="Bus_102" type="MotorCycle" route="route_21" depart="34" />
<vehicle id="Bus_103" type="MotorCycle" route="route_5" depart="35" />
<vehicle id="MotorCycle_104" type="MotorCycle" route="route_22" depart="35" />
<vehicle id="MotorCycle_105" type="MotorCycle" route="route_23" depart="35" />
<vehicle id="MotorCycle_106" type="MotorCycle" route="route_22" depart="36" />
<vehicle id="Auto_107" type="MotorCycle" route="route_23" depart="36" />
<vehicle id="MotorCycle_108" type="MotorCycle" route="route_24" depart="36" />
<vehicle id="Auto_109" type="MotorCycle" route="route_22" depart="37" />
<vehicle id="Bus_110" type="MotorCycle" route="route_24" depart="37" />
<vehicle id="Bus_111" type="MotorCycle" route="route_19" depart="38" />
<vehicle id="Bus_112" type="Car" route="route_19" depart="38" />
<vehicle id="Car_113" type="Car" route="route_22" depart="38" />
<vehicle id="Car_114" type="MotorCycle" route="route_23" depart="38" />
<vehicle id="Auto_115" type="MotorCycle" route="route_24" depart="38" />
<vehicle id="Bus_116" type="MotorCycle" route="route_10" depart="39" />
<vehicle id="Bus_117" type="Car" route="route_10" depart="39" />
<vehicle id="Auto_118" type="MotorCycle" route="route_23" depart="39" />
<vehicle id="Auto_119" type="MotorCycle" route="route_21" depart="40" />
<vehicle id="Auto_120" type="MotorCycle" route="route_22" depart="40" />
<vehicle id="Auto_121" type="Auto" route="route_23" depart="40" />
<vehicle id="Auto_122" type="MotorCycle" route="route_23" depart="40" />
<vehicle id="Auto_123" type="MotorCycle" route="route_22" depart="41" />
<vehicle id="MotorCycle_124" type="MotorCycle" route="route_23" depart="41" />
<vehicle id="Auto_125" type="Auto" route="route_24" depart="41" />
<vehicle id="Auto_126" type="MotorCycle" route="route_24" depart="41" />
<vehicle id="Bus_127" type="MotorCycle" route="route_19" depart="42" />
<vehicle id="Car_128" type="MotorCycle" route="route_21" depart="42" />
<vehicle id="Car_129" type="MotorCycle" route="route_22" depart="42" />
<vehicle id="Bus_130" type="MotorCycle" route="route_23" depart="42" />
<vehicle id="Bus_131" type="Car" route="route_23" depart="42" />
<vehicle id="MotorCycle_132" type="MotorCycle" route="route_21" depart="43" />
<vehicle id="Auto_133" type="MotorCycle" route="route_20" depart="44" />
<vehicle id="Auto_134" type="MotorCycle" route="route_22" depart="44" />
<vehicle id="Bus_135" type="MotorCycle" route="route_24" depart="44" />
<vehicle id="MotorCycle_136" type="MotorCycle" route="route_3" depart="45" />
<vehicle id="MotorCycle_137" type="Car" route="route_3" depart="45" />
<vehicle id="Car_138" type="MotorCycle" route="route_10" depart="45" />
<vehicle id="Car_139" type="Auto" route="route_21" depart="45" />
<vehicle id="Car_140" type="MotorCycle" route="route_22" depart="45" />
<vehicle id="Auto_141" type="MotorCycle" route="route_3" depart="46" />
<vehicle id="Car_142" type="MotorCycle" route="route_19" depart="46" />
<vehicle id="MotorCycle_143" type="MotorCycle" route="route_20" depart="46" />
<vehicle id="Auto_144" type="MotorCycle" route="route_23" depart="46" />
<vehicle id="Car_145" type="MotorCycle" route="route_24" depart="47" />
<vehicle id="Bus_146" type="MotorCycle" route="route_20" depart="48" />
<vehicle id="Bus_147" type="MotorCycle" route="route_21" depart="48" />
<vehicle id="Bus_148" type="MotorCycle" route="route_11" depart="50" />
<vehicle id="Bus_149" type="MotorCycle" route="route_19" depart="50" />
<vehicle id="MotorCycle_150" type="MotorCycle" route="route_20" depart="50" />
<vehicle id="MotorCycle_151" type="Car" route="route_20" depart="50" />
<vehicle id="Car_152" type="MotorCycle" route="route_22" depart="50" />
<vehicle id="Auto_153" type="MotorCycle" route="route_12" depart="51" />
<vehicle id="MotorCycle_154" type="MotorCycle" route="route_20" depart="51" />
<vehicle id="MotorCycle_155" type="MotorCycle" route="route_22" depart="51" />
<vehicle id="Auto_156" type="MotorCycle" route="route_22" depart="52" />
<vehicle id="Auto_157" type="Car" route="route_22" depart="52" />
<vehicle id="Car_158" type="Car" route="route_23" depart="52" />
<vehicle id="MotorCycle_159" type="MotorCycle" route="route_21" depart="53" />
<vehicle id="Auto_160" type="MotorCycle" route="route_24" depart="53" />
<vehicle id="MotorCycle_161" type="MotorCycle" route="route_3" depart="54" />
<vehicle id="MotorCycle_162" type="Car" route="route_3" depart="54" />
<vehicle id="Auto_163" type="MotorCycle" route="route_21" depart="54" />
<vehicle id="Car_164" type="MotorCycle" route="route_24" depart="54" />
<vehicle id="Auto_165" type="MotorCycle" route="route_14" depart="55" />
<vehicle id="Auto_166" type="Car" route="route_14" depart="55" />
<vehicle id="Auto_167" type="MotorCycle" route="route_23" depart="55" />
<vehicle id="MotorCycle_168" type="MotorCycle" route="route_19" depart="56" />
<vehicle id="MotorCycle_169" type="Car" route="route_19" depart="56" />
<vehicle id="Car_170" type="MotorCycle" route="route_21" depart="56" />
<vehicle id="Auto_171" type="MotorCycle" route="route_22" depart="56" />
<vehicle id="MotorCycle_172" type="MotorCycle" route="route_23" depart="56" />
<vehicle id="Auto_173" type="MotorCycle" route="route_8" depart="57" />
<vehicle id="Car_174" type="MotorCycle" route="route_24" depart="57" />
<vehicle id="Car_175" type="MotorCycle" route="route_1" depart="58" />
<vehicle id="MotorCycle_176" type="MotorCycle" route="route_2" depart="58" />
<vehicle id="MotorCycle_177" type="Car" route="route_2" depart="58" />
<vehicle id="Bus_178" type="MotorCycle" route="route_21" depart="58" />
<vehicle id="Auto_179" type="MotorCycle" route="route_22" depart="58" />
<vehicle id="Bus_180" type="MotorCycle" route="route_13" depart="59" />
<vehicle id="Bus_181" type="MotorCycle" route="route_21" depart="59" />
<vehicle id="Auto_182" type="Auto" route="route_8" depart="60" />
<vehicle id="Car_183" type="MotorCycle" route="route_20" depart="60" />
<vehicle id="MotorCycle_184" type="Auto" route="route_21" depart="60" />
<vehicle id="MotorCycle_185" type="MotorCycle" route="route_21" depart="60" />
<vehicle id="MotorCycle_186" type="Car" route="route_24" depart="60" />
<vehicle id="MotorCycle_187" type="MotorCycle" route="route_3" depart="61" />
<vehicle id="Car_188" type="Auto" route="route_19" depart="61" />
<vehicle id="Car_189" type="MotorCycle" route="route_19" depart="61" />
<vehicle id="Auto_190" type="MotorCycle" route="route_21" depart="61" />
<vehicle id="MotorCycle_191" type="MotorCycle" route="route_22" depart="61" />
<vehicle id="Bus_192" type="MotorCycle" route="route_4" depart="62" />
<vehicle id="Auto_193" type="Bus" route="route_22" depart="62" />
<vehicle id="Auto_194" type="MotorCycle" route="route_22" depart="62" />
<vehicle id="Bus_195" type="MotorCycle" route="route_3" depart="63" />
<vehicle id="Bus_196" type="Car" route="route_3" depart="63" />
<vehicle id="MotorCycle_197" type="Auto" route="route_21" depart="63" />
<vehicle id="MotorCycle_198" type="MotorCycle" route="route_21" depart="63" />
<vehicle id="Bus_199" type="MotorCycle" route="route_24" depart="63" />
<vehicle id="MotorCycle_200" type="MotorCycle" route="route_5" depart="64" />
<vehicle id="Car_201" type="MotorCycle" route="route_20" depart="64" />
<vehicle id="Car_202" type="Auto" route="route_21" depart="64" />
<vehicle id="Car_203" type="MotorCycle" route="route_21" depart="64" />
<vehicle id="MotorCycle_204" type="MotorCycle" route="route_24" depart="64" />
<vehicle id="Car_205" type="Car" route="route_10" depart="65" />
<vehicle id="Car_206" type="MotorCycle" route="route_22" depart="65" />
<vehicle id="Car_207" type="MotorCycle" route="route_23" depart="65" />
<vehicle id="Car_208" type="Car" route="route_23" depart="65" />
<vehicle id="Auto_209" type="MotorCycle" route="route_24" depart="65" />
<vehicle id="Car_210" type="MotorCycle" route="route_24" depart="66" />
<vehicle id="Auto_211" type="Bus" route="route_21" depart="67" />
<vehicle id="Car_212" type="MotorCycle" route="route_22" depart="67" />
<vehicle id="Car_213" type="MotorCycle" route="route_23" depart="67" />
<vehicle id="Car_214" type="Car" route="route_23" depart="67" />
<vehicle id="MotorCycle_215" type="MotorCycle" route="route_24" depart="67" />
<vehicle id="Car_216" type="Auto" route="route_10" depart="68" />
<vehicle id="Car_217" type="MotorCycle" route="route_10" depart="68" />
<vehicle id="Auto_218" type="MotorCycle" route="route_11" depart="68" />
<vehicle id="MotorCycle_219" type="MotorCycle" route="route_20" depart="68" />
<vehicle id="Bus_220" type="MotorCycle" route="route_23" depart="68" />
<vehicle id="Car_221" type="MotorCycle" route="route_22" depart="69" />
<vehicle id="Auto_222" type="Auto" route="route_1" depart="70" />
<vehicle id="Auto_223" type="MotorCycle" route="route_1" depart="70" />
<vehicle id="MotorCycle_224" type="MotorCycle" route="route_22" depart="70" />
<vehicle id="Bus_225" type="MotorCycle" route="route_23" depart="70" />
<vehicle id="Car_226" type="Car" route="route_3" depart="71" />
<vehicle id="Bus_227" type="MotorCycle" route="route_24" depart="71" />
<vehicle id="MotorCycle_228" type="MotorCycle" route="route_22" depart="72" />
<vehicle id="Car_229" type="MotorCycle" route="route_3" depart="73" />
<vehicle id="Car_230" type="MotorCycle" route="route_4" depart="73" />
<vehicle id="Auto_231" type="MotorCycle" route="route_12" depart="73" />
<vehicle id="Auto_232" type="Car" route="route_12" depart="73" />
<vehicle id="Bus_233" type="MotorCycle" route="route_22" depart="73" />
<vehicle id="Car_234" type="MotorCycle" route="route_23" depart="73" />
<vehicle id="Bus_235" type="MotorCycle" route="route_24" depart="73" />
<vehicle id="MotorCycle_236" type="MotorCycle" route="route_11" depart="74" />
<vehicle id="Bus_237" type="MotorCycle" route="route_21" depart="74" />
<vehicle id="Bus_238" type="Car" route="route_21" depart="74" />
<vehicle id="MotorCycle_239" type="Auto" route="route_23" depart="74" />
<vehicle id="MotorCycle_240" type="MotorCycle" route="route_23" depart="74" />
<vehicle id="MotorCycle_241" type="MotorCycle" route="route_24" depart="74" />
<vehicle id="Auto_242" type="MotorCycle" route="route_1" depart="75" />
<vehicle id="MotorCycle_243" type="MotorCycle" route="route_21" depart="75" />
<vehicle id="MotorCycle_244" type="Car" route="route_21" depart="75" />
<vehicle id="Bus_245" type="MotorCycle" route="route_22" depart="75" />
<vehicle id="Auto_246" type="MotorCycle" route="route_23" depart="75" />
<vehicle id="Auto_247" type="MotorCycle" route="route_15" depart="76" />
<vehicle id="Auto_248" type="Auto" route="route_19" depart="76" />
<vehicle id="Auto_249" type="MotorCycle" route="route_19" depart="76" />
<vehicle id="Car_250" type="MotorCycle" route="route_21" depart="76" />
<vehicle id="Bus_251" type="MotorCycle" route="route_22" depart="76" />
<vehicle id="Bus_252" type="Car" route="route_22" depart="76" />
<vehicle id="MotorCycle_253" type="Bus" route="route_23" depart="76" />
<vehicle id="MotorCycle_254" type="Car" route="route_23" depart="76" />
<vehicle id="MotorCycle_255" type="MotorCycle" route="route_4" depart="77" />
<vehicle id="MotorCycle_256" type="MotorCycle" route="route_21" depart="77" />
<vehicle id="Auto_257" type="MotorCycle" route="route_23" depart="77" />
<vehicle id="Car_258" type="MotorCycle" route="route_24" depart="78" />
<vehicle id="Car_259" type="MotorCycle" route="route_21" depart="79" />
<vehicle id="Car_260" type="Car" route="route_21" depart="79" />
<vehicle id="Bus_261" type="MotorCycle" route="route_23" depart="79" />
<vehicle id="Auto_262" type="MotorCycle" route="route_19" depart="80" />
<vehicle id="Auto_263" type="Car" route="route_19" depart="80" />
<vehicle id="Auto_264" type="Auto" route="route_20" depart="81" />
<vehicle id="Auto_265" type="MotorCycle" route="route_20" depart="81" />
<vehicle id="Bus_266" type="MotorCycle" route="route_2" depart="82" />
<vehicle id="Car_267" type="Auto" route="route_9" depart="82" />
<vehicle id="Auto_268" type="MotorCycle" route="route_21" depart="82" />
<vehicle id="Auto_269" type="MotorCycle" route="route_23" depart="82" />
<vehicle id="Auto_270" type="Car" route="route_23" depart="82" />
<vehicle id="Car_271" type="MotorCycle" route="route_4" depart="83" />
<vehicle id="MotorCycle_272" type="MotorCycle" route="route_20" depart="83" />
<vehicle id="Auto_273" type="MotorCycle" route="route_20" depart="84" />
<vehicle id="Auto_274" type="Auto" route="route_21" depart="84" />
<vehicle id="Auto_275" type="MotorCycle" route="route_21" depart="84" />
<vehicle id="Auto_276" type="Car" route="route_21" depart="84" />
<vehicle id="MotorCycle_277" type="MotorCycle" route="route_23" depart="84" />
<vehicle id="Car_278" type="MotorCycle" route="route_15" depart="85" />
<vehicle id="Auto_279" type="MotorCycle" route="route_21" depart="86" />
<vehicle id="Bus_280" type="MotorCycle" route="route_24" depart="86" />
<vehicle id="Auto_281" type="MotorCycle" route="route_1" depart="87" />
<vehicle id="MotorCycle_282" type="MotorCycle" route="route_19" depart="87" />
<vehicle id="MotorCycle_283" type="Car" route="route_19" depart="87" />
<vehicle id="Car_284" type="MotorCycle" route="route_21" depart="87" />
<vehicle id="Car_285" type="Car" route="route_21" depart="87" />
<vehicle id="Auto_286" type="MotorCycle" route="route_20" depart="88" />
<vehicle id="Auto_287" type="MotorCycle" route="route_22" depart="88" />
<vehicle id="Bus_288" type="MotorCycle" route="route_23" depart="88" />
<vehicle id="Bus_289" type="MotorCycle" route="route_24" depart="88" />
<vehicle id="Car_290" type="MotorCycle" route="route_24" depart="89" />
<vehicle id="Auto_291" type="MotorCycle" route="route_14" depart="90" />
<vehicle id="Auto_292" type="MotorCycle" route="route_15" depart="90" />
<vehicle id="Auto_293" type="Car" route="route_15" depart="90" />
<vehicle id="Bus_294" type="MotorCycle" route="route_18" depart="90" />
<vehicle id="Bus_295" type="Car" route="route_18" depart="90" />
<vehicle id="Auto_296" type="MotorCycle" route="route_19" depart="90" />
<vehicle id="Car_297" type="MotorCycle" route="route_21" depart="90" />
<vehicle id="Auto_298" type="MotorCycle" route="route_23" depart="90" />
<vehicle id="Car_299" type="MotorCycle" route="route_2" depart="91" />
<vehicle id="Car_300" type="MotorCycle" route="route_21" depart="91" />
<vehicle id="Car_301" type="Car" route="route_21" depart="91" />
<vehicle id="Car_302" type="MotorCycle" route="route_23" depart="91" />
<vehicle id="Auto_303" type="MotorCycle" route="route_20" depart="92" />
<vehicle id="Auto_304" type="MotorCycle" route="route_21" depart="92" />
<vehicle id="MotorCycle_305" type="MotorCycle" route="route_22" depart="92" />
<vehicle id="MotorCycle_306" type="Car" route="route_22" depart="92" />
<vehicle id="Car_307" type="MotorCycle" route="route_19" depart="93" />
<vehicle id="Auto_308" type="MotorCycle" route="route_20" depart="93" />
<vehicle id="Car_309" type="MotorCycle" route="route_22" depart="93" />
<vehicle id="MotorCycle_310" type="MotorCycle" route="route_10" depart="94" />
<vehicle id="Bus_311" type="MotorCycle" route="route_15" depart="94" />
<vehicle id="Auto_312" type="MotorCycle" route="route_21" depart="94" />
<vehicle id="MotorCycle_313" type="MotorCycle" route="route_1" depart="95" />
<vehicle id="MotorCycle_314" type="Car" route="route_1" depart="95" />
<vehicle id="Bus_315" type="MotorCycle" route="route_19" depart="95" />
<vehicle id="Bus_316" type="Bus" route="route_23" depart="95" />
<vehicle id="Bus_317" type="MotorCycle" route="route_23" depart="95" />
<vehicle id="Auto_318" type="MotorCycle" route="route_22" depart="96" />
<vehicle id="Auto_319" type="Car" route="route_22" depart="96" />
<vehicle id="Bus_320" type="MotorCycle" route="route_1" depart="97" />
<vehicle id="Bus_321" type="MotorCycle" route="route_12" depart="97" />
<vehicle id="Auto_322" type="MotorCycle" route="route_19" depart="97" />
<vehicle id="Car_323" type="MotorCycle" route="route_4" depart="98" />
<vehicle id="Car_324" type="Car" route="route_6" depart="98" />
<vehicle id="MotorCycle_325" type="MotorCycle" route="route_11" depart="98" />
<vehicle id="MotorCycle_326" type="Auto" route="route_21" depart="98" />
<vehicle id="Bus_327" type="MotorCycle" route="route_22" depart="98" />
<vehicle id="Bus_328" type="Car" route="route_22" depart="98" />
<vehicle id="MotorCycle_329" type="MotorCycle" route="route_24" depart="98" />
<vehicle id="MotorCycle_330" type="Car" route="route_24" depart="98" />
<vehicle id="Bus_331" type="MotorCycle" route="route_1" depart="99" />
<vehicle id="Bus_332" type="Car" route="route_1" depart="99" />
<vehicle id="Bus_333" type="Car" route="route_22" depart="99" />
<vehicle id="Auto_334" type="MotorCycle" route="route_20" depart="100" />
<vehicle id="Auto_335" type="MotorCycle" route="route_7" depart="101" />
<vehicle id="Bus_336" type="MotorCycle" route="route_11" depart="101" />
<vehicle id="MotorCycle_337" type="MotorCycle" route="route_20" depart="101" />
<vehicle id="Bus_338" type="Auto" route="route_10" depart="102" />
<vehicle id="MotorCycle_339" type="MotorCycle" route="route_20" depart="102" />
<vehicle id="Auto_340" type="MotorCycle" route="route_23" depart="102" />
<vehicle id="Car_341" type="MotorCycle" route="route_24" depart="102" />
<vehicle id="Bus_342" type="MotorCycle" route="route_9" depart="103" />
<vehicle id="Bus_343" type="MotorCycle" route="route_20" depart="103" />
<vehicle id="Bus_344" type="Car" route="route_21" depart="103" />
<vehicle id="Bus_345" type="MotorCycle" route="route_22" depart="104" />
<vehicle id="Bus_346" type="MotorCycle" route="route_23" depart="104" />
<vehicle id="MotorCycle_347" type="MotorCycle" route="route_5" depart="105" />
<vehicle id="Bus_348" type="MotorCycle" route="route_9" depart="105" />
<vehicle id="Bus_349" type="Car" route="route_9" depart="105" />
<vehicle id="Bus_350" type="MotorCycle" route="route_20" depart="105" />
<vehicle id="MotorCycle_351" type="MotorCycle" route="route_21" depart="105" />
<vehicle id="Bus_352" type="MotorCycle" route="route_22" depart="105" />
<vehicle id="Auto_353" type="MotorCycle" route="route_4" depart="106" />
<vehicle id="Bus_354" type="MotorCycle" route="route_19" depart="106" />
<vehicle id="Bus_355" type="Car" route="route_19" depart="106" />
<vehicle id="Auto_356" type="MotorCycle" route="route_20" depart="106" />
<vehicle id="Car_357" type="Auto" route="route_21" depart="106" />
<vehicle id="Car_358" type="MotorCycle" route="route_21" depart="106" />
<vehicle id="Car_359" type="Car" route="route_21" depart="106" />
<vehicle id="Car_360" type="MotorCycle" route="route_23" depart="106" />
<vehicle id="MotorCycle_361" type="MotorCycle" route="route_24" depart="106" />
<vehicle id="Car_362" type="MotorCycle" route="route_4" depart="107" />
<vehicle id="Car_363" type="Car" route="route_4" depart="107" />
<vehicle id="MotorCycle_364" type="MotorCycle" route="route_8" depart="107" />
<vehicle id="Bus_365" type="Car" route="route_11" depart="107" />
<vehicle id="Auto_366" type="MotorCycle" route="route_22" depart="107" />
<vehicle id="Auto_367" type="MotorCycle" route="route_1" depart="108" />
<vehicle id="Car_368" type="MotorCycle" route="route_2" depart="108" />
<vehicle id="Auto_369" type="MotorCycle" route="route_5" depart="108" />
<vehicle id="Bus_370" type="MotorCycle" route="route_23" depart="108" />
<vehicle id="Bus_371" type="Car" route="route_23" depart="108" />
<vehicle id="Bus_372" type="MotorCycle" route="route_11" depart="109" />
<vehicle id="Auto_373" type="MotorCycle" route="route_20" depart="109" />
<vehicle id="Auto_374" type="MotorCycle" route="route_19" depart="110" />
<vehicle id="Auto_375" type="Car" route="route_19" depart="110" />