<routes>
<vType id="Bus" accel="0.6" decel="3.5" sigma="0.5" length="10.1" minGap="1.0" maxSpeed="16.67" carFollowModel="Wiedemann" guiShape="bus" width="2.45" latAlignment="left" laneChangeModel="SL2015" lcStrategic="0.5" lcCooperative="0.0"/>
<vType id="Auto" accel="0.7" decel="4.5" sigma="0.5" length="2.6" minGap="0.3" maxSpeed="16" carFollowModel="Wiedemann" guiShape="passenger/sedan" width="1.25" latAlignment="left" laneChangeModel="SL2015" lcStrategic="0.5" lcCooperative="0.0" />
<vType id="MotorCycle" accel="0.9" decel="3.5" sigma="0.5" length="1.85" minGap="0.15"  carFollowModel="Wiedemann" maxSpeed="17" guiShape="motorcycle" width="0.7" latAlignment="left" laneChangeModel="SL2015" lcStrategic="0.5" lcCooperative="0.0"/>
<vType id="Car" accel="0.8" decel="4.5" sigma="0.5" length="3.6" minGap="0.5" maxSpeed="40" carFollowModel="Wiedemann" guiShape="passenger" width="1.5" latAlignment="left" laneChangeModel="SL2015" lcStrategic="0.5" lcCooperative="0.0"/>
<vType id="emergency" accel="2.8" decel="5.5" sigma="0.5" length="3.6" minGap="0.5" maxSpeed="120.6" carFollowModel="Wiedemann" guiShape="emergency" width="1.5" latAlignment="left" laneChangeModel="SL2015" lcStrategic="0.5" lcCooperative="0.0" vClass="emergency" speedFactor="1.9" jmDriveAfterRedTime="300" jmDriveAfterRedSpeed="5.56">
<param key="has.bluelight.device" value="true"/>
<param key="has.fcd.device" value="true"/> 
</vType>
<route id="route_0" edges="1i 52i gneE0 gneE2" />
<route id="route_1" edges="-gneE2 -gneE0 52o 2i 1o" />
        <route id="route_2" edges="4i 3o" />
        <route id="route_3" edges="3i 4o" />
        <route id="route_4" edges="-gneE1 gneE3" /> 
        <route id="route_5" edges="4i 1o" />
        <route id="route_6" edges="4i 2o 52i gneE0 gneE1" />
        <route id="route_7" edges="2i 4o" />
        <route id="route_8" edges="2i 3o" />
        <route id="route_9" edges="-gneE1 gneE3" />
        <route id="route_10" edges="3i 2o 52i gneE0 gneE3" />
        <route id="route_11" edges="3i 1o" />
        <route id="route_12" edges="-gneE1 -gneE0 52o 2i 4o" />
        <route id="route_13" edges="-gneE1 gneE2" />
        <route id="route_14" edges="-gneE2 gneE1" />
        <route id="route_15" edges="-gneE2 gneE3" />
        <route id="route_16" edges="-gneE3 -gneE0 52o 2i 3o" />
        <route id="route_17" edges="-gneE3 gneE2" />
        <route id="route_18" edges="gneE0 gneE3" />
        <route id="route_19" edges="gneE0 gneE1" />
        <route id="route_20" edges="1i 2o 52i gneE0 gneE2 -gneE4 gneE5" />
        <route id="route_21" edges="-gneE5 gneE4 -gneE2 -gneE0 52o 2i 1o" />
        <route id="route_22" edges="-gneE5 gneE4 -gneE2 -gneE0 52o 2i 3o" />
        <route id="route_23" edges="1i 2o 52i gneE0 gneE2 -gneE4 gneE7" />

	<route id="route_24" edges="gneE0"/>
<vehicle id="emergency_0" type="emergency" route="route_7" depart="0" />
<vehicle id="Bus_0" type="Bus" route="route_7" depart="0" />
<vehicle id="Car_0" type="Car" route="route_10" depart="0" />
<vehicle id="MotorCycle_1" type="MotorCycle" route="route_4" depart="1" />
<vehicle id="MotorCycle_2" type="MotorCycle" route="route_19" depart="1" />
<vehicle id="MotorCycle_3" type="Bus" route="route_20" depart="1" />
<vehicle id="MotorCycle_4" type="MotorCycle" route="route_20" depart="1" />
<vehicle id="Car_5" type="MotorCycle" route="route_22" depart="1" />
<vehicle id="Bus_6" type="MotorCycle" route="route_24" depart="1" />
<vehicle id="Car_7" type="MotorCycle" route="route_20" depart="2" />
<vehicle id="MotorCycle_8" type="Bus" route="route_21" depart="2" />
<vehicle id="Bus_9" type="MotorCycle" route="route_22" depart="2" />
<vehicle id="Bus_10" type="Car" route="route_22" depart="2" />
<vehicle id="Auto_11" type="MotorCycle" route="route_12" depart="3" />
<vehicle id="Auto_12" type="MotorCycle" route="route_20" depart="3" />
<vehicle id="Car_13" type="MotorCycle" route="route_21" depart="3" />
<vehicle id="Auto_14" type="MotorCycle" route="route_22" depart="3" />
<vehicle id="MotorCycle_15" type="MotorCycle" route="route_19" depart="4" />
<vehicle id="MotorCycle_16" type="MotorCycle" route="route_20" depart="4" />
<vehicle id="Bus_17" type="MotorCycle" route="route_24" depart="4" />
<vehicle id="Car_18" type="MotorCycle" route="route_21" depart="5" />
<vehicle id="Car_19" type="MotorCycle" route="route_22" depart="5" />
<vehicle id="MotorCycle_20" type="MotorCycle" route="route_20" depart="7" />
<vehicle id="MotorCycle_21" type="Car" route="route_20" depart="7" />
<vehicle id="MotorCycle_22" type="MotorCycle" route="route_21" depart="8" />
<vehicle id="MotorCycle_23" type="MotorCycle" route="route_22" depart="8" />
<vehicle id="Bus_24" type="MotorCycle" route="route_4" depart="9" />
<vehicle id="Auto_25" type="MotorCycle" route="route_22" depart="9" />
<vehicle id="Bus_26" type="MotorCycle" route="route_23" depart="9" />
<vehicle id="Auto_27" type="MotorCycle" route="route_3" depart="10" />
<vehicle id="Auto_28" type="MotorCycle" route="route_16" depart="10" />
<vehicle id="Auto_29" type="MotorCycle" route="route_22" depart="10" />
<vehicle id="Car_30" type="Auto" route="route_24" depart="10" />
<vehicle id="Car_31" type="MotorCycle" route="route_24" depart="10" />
<vehicle id="MotorCycle_32" type="MotorCycle" route="route_11" depart="11" />
<vehicle id="MotorCycle_33" type="Car" route="route_11" depart="11" />
<vehicle id="Bus_34" type="MotorCycle" route="route_22" depart="11" />
<vehicle id="Car_35" type="MotorCycle" route="route_10" depart="12" />
<vehicle id="Auto_36" type="Car" route="route_20" depart="13" />
<vehicle id="Auto_37" type="MotorCycle" route="route_24" depart="13" />
<vehicle id="Car_38" type="MotorCycle" route="route_22" depart="14" />
<vehicle id="Car_39" type="Car" route="route_22" depart="14" />
<vehicle id="Auto_40" type="MotorCycle" route="route_7" depart="15" />
<vehicle id="Bus_41" type="MotorCycle" route="route_20" depart="15" />
<vehicle id="Auto_42" type="MotorCycle" route="route_19" depart="16" />
<vehicle id="Auto_43" type="MotorCycle" route="route_20" depart="16" />
<vehicle id="Bus_44" type="MotorCycle" route="route_24" depart="16" />
<vehicle id="Auto_45" type="MotorCycle" route="route_3" depart="17" />
<vehicle id="Bus_46" type="MotorCycle" route="route_19" depart="17" />
<vehicle id="Bus_47" type="Car" route="route_19" depart="17" />
<vehicle id="Auto_48" type="MotorCycle" route="route_21" depart="17" />
<vehicle id="Bus_49" type="MotorCycle" route="route_4" depart="18" />
<vehicle id="Bus_50" type="MotorCycle" route="route_14" depart="19" />
<vehicle id="MotorCycle_51" type="MotorCycle" route="route_21" depart="19" />
<vehicle id="MotorCycle_52" type="Car" route="route_21" depart="19" />
<vehicle id="MotorCycle_53" type="MotorCycle" route="route_21" depart="21" />
<vehicle id="Bus_54" type="MotorCycle" route="route_22" depart="21" />
<vehicle id="MotorCycle_55" type="MotorCycle" route="route_24" depart="21" />
<vehicle id="Car_56" type="MotorCycle" route="route_12" depart="22" />
<vehicle id="MotorCycle_57" type="Auto" route="route_14" depart="22" />
<vehicle id="MotorCycle_58" type="MotorCycle" route="route_14" depart="22" />
<vehicle id="Bus_59" type="MotorCycle" route="route_21" depart="22" />
<vehicle id="Auto_60" type="Auto" route="route_22" depart="22" />
<vehicle id="Auto_61" type="MotorCycle" route="route_22" depart="22" />
<vehicle id="Bus_62" type="MotorCycle" route="route_23" depart="22" />
<vehicle id="MotorCycle_63" type="MotorCycle" route="route_24" depart="22" />
<vehicle id="Auto_64" type="MotorCycle" route="route_21" depart="23" />
<vehicle id="Car_65" type="MotorCycle" route="route_22" depart="23" />
<vehicle id="Bus_66" type="MotorCycle" route="route_23" depart="23" />
<vehicle id="MotorCycle_67" type="Car" route="route_23" depart="24" />
<vehicle id="Car_68" type="MotorCycle" route="route_22" depart="25" />
<vehicle id="MotorCycle_69" type="MotorCycle" route="route_4" depart="26" />
<vehicle id="MotorCycle_70" type="Car" route="route_4" depart="26" />
<vehicle id="Auto_71" type="MotorCycle" route="route_9" depart="26" />
<vehicle id="MotorCycle_72" type="MotorCycle" route="route_20" depart="26" />
<vehicle id="MotorCycle_73" type="Auto" route="route_21" depart="26" />
<vehicle id="MotorCycle_74" type="MotorCycle" route="route_21" depart="26" />
<vehicle id="MotorCycle_75" type="Car" route="route_21" depart="26" />
<vehicle id="Car_76" type="MotorCycle" route="route_20" depart="27" />
<vehicle id="MotorCycle_77" type="MotorCycle" route="route_23" depart="27" />
<vehicle id="Bus_78" type="MotorCycle" route="route_24" depart="27" />
<vehicle id="Bus_79" type="MotorCycle" route="route_21" depart="28" />
<vehicle id="Car_80" type="MotorCycle" route="route_23" depart="28" />
<vehicle id="Car_81" type="Car" route="route_23" depart="28" />
<vehicle id="Bus_82" type="MotorCycle" route="route_22" depart="29" />
<vehicle id="MotorCycle_83" type="Car" route="route_23" depart="29" />
<vehicle id="Bus_84" type="MotorCycle" route="route_4" depart="30" />
<vehicle id="Auto_85" type="MotorCycle" route="route_12" depart="31" />
<vehicle id="Bus_86" type="MotorCycle" route="route_21" depart="31" />
<vehicle id="Bus_87" type="Car" route="route_21" depart="31" />
<vehicle id="Bus_88" type="MotorCycle" route="route_22" depart="31" />
<vehicle id="Auto_89" type="MotorCycle" route="route_23" depart="32" />
<vehicle id="Car_90" type="MotorCycle" route="route_3" depart="33" />
<vehicle id="Car_91" type="MotorCycle" route="route_21" depart="33" />
<vehicle id="Car_92" type="Auto" route="route_21" depart="34" />
<vehicle id="Car_93" type="MotorCycle" route="route_21" depart="34" />
<vehicle id="Bus_94" type="Car" route="route_23" depart="34" />
<vehicle id="MotorCycle_95" type="MotorCycle" route="route_20" depart="35" />
<vehicle id="MotorCycle_96" type="MotorCycle" route="route_3" depart="36" />
<vehicle id="Car_97" type="MotorCycle" route="route_18" depart="36" />
<vehicle id="Auto_98" type="MotorCycle" route="route_20" depart="36" />
<vehicle id="Auto_99" type="Car" route="route_20" depart="36" />
<vehicle id="MotorCycle_100" type="MotorCycle" route="route_19" depart="38" />
<vehicle id="Car_101" type="MotorCycle" route="route_21" depart="38" />
<vehicle id="Auto_102" type="MotorCycle" route="route_22" depart="38" />
<vehicle id="Car_103" type="MotorCycle" route="route_5" depart="40" />
<vehicle id="Auto_104" type="MotorCycle" route="route_10" depart="40" />
<vehicle id="MotorCycle_105" type="MotorCycle" route="route_12" depart="40" />
<vehicle id="Bus_106" type="MotorCycle" route="route_19" depart="40" />
<vehicle id="Auto_107" type="MotorCycle" route="route_3" depart="42" />
<vehicle id="Auto_108" type="Car" route="route_3" depart="42" />
<vehicle id="Car_109" type="MotorCycle" route="route_14" depart="42" />
<vehicle id="Car_110" type="MotorCycle" route="route_21" depart="42" />
<vehicle id="Auto_111" type="MotorCycle" route="route_21" depart="43" />
<vehicle id="Auto_112" type="Car" route="route_21" depart="43" />
<vehicle id="Car_113" type="MotorCycle" route="route_22" depart="43" />
<vehicle id="Auto_114" type="Bus" route="route_23" depart="43" />
<vehicle id="Auto_115" type="MotorCycle" route="route_23" depart="43" />
<vehicle id="MotorCycle_116" type="MotorCycle" route="route_2" depart="44" />
<vehicle id="Auto_117" type="Car" route="route_22" depart="44" />
<vehicle id="Auto_118" type="MotorCycle" route="route_11" depart="45" />
<vehicle id="Bus_119" type="MotorCycle" route="route_20" depart="45" />
<vehicle id="Car_120" type="MotorCycle" route="route_22" depart="45" />
<vehicle id="Car_121" type="Car" route="route_22" depart="45" />
<vehicle id="Bus_122" type="MotorCycle" route="route_16" depart="46" />
<vehicle id="Car_123" type="MotorCycle" route="route_20" depart="46" />
<vehicle id="MotorCycle_124" type="MotorCycle" route="route_23" depart="46" />
<vehicle id="Car_125" type="Bus" route="route_5" depart="47" />
<vehicle id="Bus_126" type="MotorCycle" route="route_2" depart="48" />
<vehicle id="MotorCycle_127" type="MotorCycle" route="route_16" depart="48" />
<vehicle id="Auto_128" type="MotorCycle" route="route_20" depart="48" />
<vehicle id="Auto_129" type="Car" route="route_20" depart="48" />
<vehicle id="Auto_130" type="MotorCycle" route="route_21" depart="48" />
<vehicle id="Auto_131" type="Car" route="route_21" depart="48" />
<vehicle id="MotorCycle_132" type="MotorCycle" route="route_22" depart="48" />
<vehicle id="Car_133" type="MotorCycle" route="route_1" depart="49" />
<vehicle id="Car_134" type="MotorCycle" route="route_2" depart="49" />
<vehicle id="Auto_135" type="Auto" route="route_10" depart="49" />
<vehicle id="Auto_136" type="MotorCycle" route="route_10" depart="49" />
<vehicle id="Car_137" type="MotorCycle" route="route_20" depart="49" />
<vehicle id="Auto_138" type="MotorCycle" route="route_4" depart="50" />
<vehicle id="MotorCycle_139" type="MotorCycle" route="route_7" depart="50" />
<vehicle id="Bus_140" type="MotorCycle" route="route_15" depart="50" />
<vehicle id="Car_141" type="MotorCycle" route="route_19" depart="50" />
<vehicle id="Car_142" type="MotorCycle" route="route_20" depart="50" />
<vehicle id="Bus_143" type="Car" route="route_23" depart="50" />
<vehicle id="MotorCycle_144" type="MotorCycle" route="route_12" depart="51" />
<vehicle id="Auto_145" type="MotorCycle" route="route_21" depart="51" />
<vehicle id="Bus_146" type="MotorCycle" route="route_24" depart="51" />
<vehicle id="Car_147" type="Auto" route="route_9" depart="52" />
<vehicle id="Car_148" type="MotorCycle" route="route_9" depart="52" />
<vehicle id="Bus_149" type="MotorCycle" route="route_19" depart="52" />
<vehicle id="Auto_150" type="MotorCycle" route="route_20" depart="52" />
<vehicle id="Auto_151" type="Auto" route="route_22" depart="52" />
<vehicle id="Auto_152" type="MotorCycle" route="route_23" depart="52" />
<vehicle id="Bus_153" type="MotorCycle" route="route_2" depart="53" />
<vehicle id="Bus_154" type="Car" route="route_2" depart="53" />
<vehicle id="Auto_155" type="MotorCycle" route="route_19" depart="53" />
<vehicle id="Auto_156" type="MotorCycle" route="route_1" depart="54" />
<vehicle id="Bus_157" type="Auto" route="route_5" depart="54" />
<vehicle id="Bus_158" type="MotorCycle" route="route_22" depart="54" />
<vehicle id="Auto_159" type="MotorCycle" route="route_23" depart="54" />
<vehicle id="Auto_160" type="Car" route="route_23" depart="54" />
<vehicle id="MotorCycle_161" type="MotorCycle" route="route_1" depart="55" />
<vehicle id="Auto_162" type="MotorCycle" route="route_20" depart="55" />
<vehicle id="MotorCycle_163" type="Car" route="route_22" depart="55" />
<vehicle id="Car_164" type="MotorCycle" route="route_24" depart="55" />
<vehicle id="MotorCycle_165" type="MotorCycle" route="route_10" depart="56" />
<vehicle id="Bus_166" type="MotorCycle" route="route_19" depart="56" />
<vehicle id="Bus_167" type="Car" route="route_19" depart="56" />
<vehicle id="Car_168" type="MotorCycle" route="route_22" depart="56" />
<vehicle id="Bus_169" type="MotorCycle" route="route_20" depart="57" />
<vehicle id="Car_170" type="MotorCycle" route="route_13" depart="58" />
<vehicle id="Car_171" type="MotorCycle" route="route_21" depart="58" />
<vehicle id="MotorCycle_172" type="MotorCycle" route="route_24" depart="58" />
<vehicle id="Auto_173" type="MotorCycle" route="route_20" depart="59" />
<vehicle id="Auto_174" type="MotorCycle" route="route_24" depart="59" />
<vehicle id="Auto_175" type="MotorCycle" route="route_14" depart="60" />
<vehicle id="Car_176" type="MotorCycle" route="route_19" depart="60" />
<vehicle id="Bus_177" type="MotorCycle" route="route_21" depart="60" />
<vehicle id="Car_178" type="MotorCycle" route="route_22" depart="60" />
<vehicle id="Bus_179" type="MotorCycle" route="route_23" depart="60" />
<vehicle id="MotorCycle_180" type="MotorCycle" route="route_1" depart="61" />
<vehicle id="MotorCycle_181" type="MotorCycle" route="route_3" depart="61" />
<vehicle id="Car_182" type="Car" route="route_21" depart="61" />
<vehicle id="Car_183" type="MotorCycle" route="route_22" depart="61" />
<vehicle id="Auto_184" type="MotorCycle" route="route_23" depart="61" />
<vehicle id="Bus_185" type="MotorCycle" route="route_3" depart="62" />
<vehicle id="MotorCycle_186" type="MotorCycle" route="route_21" depart="62" />
<vehicle id="MotorCycle_187" type="MotorCycle" route="route_22" depart="62" />
<vehicle id="MotorCycle_188" type="MotorCycle" route="route_24" depart="62" />
<vehicle id="Car_189" type="Car" route="route_9" depart="63" />
<vehicle id="Bus_190" type="MotorCycle" route="route_21" depart="63" />
<vehicle id="Bus_191" type="Car" route="route_21" depart="63" />
<vehicle id="Auto_192" type="MotorCycle" route="route_22" depart="63" />
<vehicle id="Car_193" type="MotorCycle" route="route_23" depart="63" />
<vehicle id="Bus_194" type="MotorCycle" route="route_7" depart="64" />
<vehicle id="Bus_195" type="MotorCycle" route="route_9" depart="64" />
<vehicle id="Auto_196" type="MotorCycle" route="route_23" depart="64" />
<vehicle id="Auto_197" type="MotorCycle" route="route_24" depart="64" />
<vehicle id="Auto_198" type="MotorCycle" route="route_19" depart="65" />
<vehicle id="Auto_199" type="MotorCycle" route="route_21" depart="65" />
<vehicle id="Auto_200" type="Car" route="route_22" depart="65" />
<vehicle id="Auto_201" type="MotorCycle" route="route_23" depart="65" />
<vehicle id="Car_202" type="MotorCycle" route="route_12" depart="66" />
<vehicle id="Bus_203" type="MotorCycle" route="route_21" depart="66" />
<vehicle id="MotorCycle_204" type="MotorCycle" route="route_2" depart="67" />
<vehicle id="Car_205" type="MotorCycle" route="route_22" depart="67" />
<vehicle id="MotorCycle_206" type="Auto" route="route_23" depart="67" />
<vehicle id="MotorCycle_207" type="MotorCycle" route="route_23" depart="67" />
<vehicle id="Car_208" type="Car" route="route_21" depart="68" />
<vehicle id="Auto_209" type="MotorCycle" route="route_20" depart="69" />
<vehicle id="Auto_210" type="Car" route="route_20" depart="69" />
<vehicle id="Auto_211" type="MotorCycle" route="route_21" depart="69" />
<vehicle id="Auto_212" type="MotorCycle" route="route_22" depart="69" />
<vehicle id="Auto_213" type="Car" route="route_21" depart="70" />
<vehicle id="Auto_214" type="MotorCycle" route="route_23" depart="70" />
<vehicle id="Auto_215" type="MotorCycle" route="route_3" depart="71" />
<vehicle id="Car_216" type="MotorCycle" route="route_20" depart="71" />
<vehicle id="Car_217" type="MotorCycle" route="route_21" depart="71" />
<vehicle id="Bus_218" type="MotorCycle" route="route_23" depart="71" />
<vehicle id="Auto_219" type="MotorCycle" route="route_24" depart="71" />
<vehicle id="Bus_220" type="MotorCycle" route="route_14" depart="72" />
<vehicle id="Bus_221" type="MotorCycle" route="route_22" depart="72" />
<vehicle id="MotorCycle_222" type="MotorCycle" route="route_23" depart="72" />
<vehicle id="Bus_223" type="Car" route="route_21" depart="73" />
<vehicle id="Bus_224" type="MotorCycle" route="route_21" depart="74" />
<vehicle id="Bus_225" type="MotorCycle" route="route_22" depart="74" />
<vehicle id="Car_226" type="MotorCycle" route="route_10" depart="76" />
<vehicle id="Bus_227" type="MotorCycle" route="route_5" depart="77" />
<vehicle id="MotorCycle_228" type="MotorCycle" route="route_12" depart="77" />
<vehicle id="Auto_229" type="MotorCycle" route="route_20" depart="77" />
<vehicle id="Auto_230" type="MotorCycle" route="route_22" depart="77" />
<vehicle id="Car_231" type="MotorCycle" route="route_24" depart="77" />
<vehicle id="Car_232" type="Car" route="route_24" depart="77" />
<vehicle id="MotorCycle_233" type="Auto" route="route_3" depart="78" />
<vehicle id="MotorCycle_234" type="MotorCycle" route="route_3" depart="78" />
<vehicle id="Auto_235" type="Auto" route="route_4" depart="78" />
<vehicle id="Auto_236" type="MotorCycle" route="route_4" depart="78" />
<vehicle id="Car_237" type="MotorCycle" route="route_20" depart="78" />
<vehicle id="Bus_238" type="MotorCycle" route="route_21" depart="78" />
<vehicle id="Bus_239" type="MotorCycle" route="route_24" depart="78" />
<vehicle id="Car_240" type="MotorCycle" route="route_19" depart="79" />
<vehicle id="MotorCycle_241" type="MotorCycle" route="route_20" depart="79" />
<vehicle id="Car_242" type="MotorCycle" route="route_22" depart="79" />
<vehicle id="Car_243" type="Car" route="route_22" depart="79" />
<vehicle id="Auto_244" type="MotorCycle" route="route_19" depart="80" />
<vehicle id="MotorCycle_245" type="Car" route="route_23" depart="80" />
<vehicle id="Car_246" type="MotorCycle" route="route_8" depart="81" />
<vehicle id="MotorCycle_247" type="MotorCycle" route="route_22" depart="81" />
<vehicle id="Car_248" type="MotorCycle" route="route_9" depart="82" />
<vehicle id="Car_249" type="MotorCycle" route="route_16" depart="82" />
<vehicle id="MotorCycle_250" type="MotorCycle" route="route_21" depart="82" />
<vehicle id="Auto_251" type="MotorCycle" route="route_3" depart="83" />
<vehicle id="Auto_252" type="MotorCycle" route="route_22" depart="84" />
<vehicle id="Auto_253" type="MotorCycle" route="route_23" depart="84" />
<vehicle id="MotorCycle_254" type="MotorCycle" route="route_24" depart="84" />
<vehicle id="MotorCycle_255" type="Auto" route="route_19" depart="85" />
<vehicle id="MotorCycle_256" type="MotorCycle" route="route_19" depart="85" />
<vehicle id="MotorCycle_257" type="MotorCycle" route="route_21" depart="85" />
<vehicle id="Bus_258" type="MotorCycle" route="route_22" depart="86" />
<vehicle id="Bus_259" type="MotorCycle" route="route_4" depart="87" />
<vehicle id="Bus_260" type="MotorCycle" route="route_21" depart="87" />
<vehicle id="Auto_261" type="MotorCycle" route="route_22" depart="87" />
<vehicle id="Bus_262" type="MotorCycle" route="route_24" depart="87" />
<vehicle id="Auto_263" type="MotorCycle" route="route_4" depart="88" />
<vehicle id="MotorCycle_264" type="MotorCycle" route="route_23" depart="88" />
<vehicle id="Car_265" type="Auto" route="route_24" depart="88" />
<vehicle id="Car_266" type="MotorCycle" route="route_24" depart="88" />
<vehicle id="Bus_267" type="MotorCycle" route="route_19" depart="90" />
<vehicle id="Bus_268" type="MotorCycle" route="route_21" depart="90" />
<vehicle id="Car_269" type="MotorCycle" route="route_24" depart="90" />
<vehicle id="MotorCycle_270" type="MotorCycle" route="route_2" depart="91" />
<vehicle id="MotorCycle_271" type="Car" route="route_2" depart="91" />
<vehicle id="MotorCycle_272" type="MotorCycle" route="route_4" depart="91" />
<vehicle id="Bus_273" type="MotorCycle" route="route_12" depart="91" />
<vehicle id="MotorCycle_274" type="MotorCycle" route="route_22" depart="92" />
<vehicle id="Car_275" type="MotorCycle" route="route_24" depart="92" />
<vehicle id="Car_276" type="Car" route="route_24" depart="92" />
<vehicle id="Car_277" type="MotorCycle" route="route_19" depart="93" />
<vehicle id="Auto_278" type="MotorCycle" route="route_21" depart="93" />
<vehicle id="MotorCycle_279" type="MotorCycle" route="route_21" depart="94" />
<vehicle id="Car_280" type="MotorCycle" route="route_2" depart="95" />
<vehicle id="Auto_281" type="MotorCycle" route="route_22" depart="95" />
<vehicle id="Auto_282" type="Car" route="route_22" depart="95" />
<vehicle id="Car_283" type="MotorCycle" route="route_23" depart="95" />
<vehicle id="Car_284" type="MotorCycle" route="route_4" depart="96" />
<vehicle id="Car_285" type="MotorCycle" route="route_7" depart="96" />
<vehicle id="Bus_286" type="Auto" route="route_20" depart="96" />
<vehicle id="Bus_287" type="MotorCycle" route="route_20" depart="96" />
<vehicle id="Bus_288" type="Car" route="route_20" depart="96" />
<vehicle id="Bus_289" type="MotorCycle" route="route_7" depart="97" />
<vehicle id="Bus_290" type="Auto" route="route_19" depart="97" />
<vehicle id="Bus_291" type="MotorCycle" route="route_19" depart="97" />
<vehicle id="Auto_292" type="Auto" route="route_22" depart="97" />
<vehicle id="Auto_293" type="MotorCycle" route="route_22" depart="97" />
<vehicle id="MotorCycle_294" type="MotorCycle" route="route_21" depart="98" />
<vehicle id="Auto_295" type="MotorCycle" route="route_22" depart="98" />
<vehicle id="MotorCycle_296" type="Auto" route="route_24" depart="98" />
<vehicle id="MotorCycle_297" type="MotorCycle" route="route_24" depart="98" />
<vehicle id="Car_298" type="MotorCycle" route="route_6" depart="99" />
<vehicle id="Car_299" type="Car" route="route_6" depart="99" />
<vehicle id="Auto_300" type="Auto" route="route_12" depart="99" />
<vehicle id="MotorCycle_301" type="MotorCycle" route="route_13" depart="99" />
<vehicle id="Auto_302" type="MotorCycle" route="route_19" depart="99" />
<vehicle id="Auto_303" type="MotorCycle" route="route_22" depart="99" />
<vehicle id="Bus_304" type="MotorCycle" route="route_23" depart="99" />
<vehicle id="Auto_305" type="MotorCycle" route="route_24" depart="99" />
<vehicle id="MotorCycle_306" type="MotorCycle" route="route_4" depart="100" />
<vehicle id="MotorCycle_307" type="Car" route="route_4" depart="100" />
<vehicle id="Bus_308" type="MotorCycle" route="route_20" depart="100" />
<vehicle id="MotorCycle_309" type="MotorCycle" route="route_3" depart="101" />
<vehicle id="Bus_310" type="MotorCycle" route="route_8" depart="101" />
<vehicle id="MotorCycle_311" type="MotorCycle" route="route_19" depart="102" />
<vehicle id="Car_312" type="MotorCycle" route="route_21" depart="102" />
<vehicle id="Car_313" type="MotorCycle" route="route_4" depart="103" />
<vehicle id="Auto_314" type="MotorCycle" route="route_11" depart="103" />
<vehicle id="Auto_315" type="MotorCycle" route="route_24" depart="103" />
<vehicle id="Car_316" type="Car" route="route_3" depart="104" />
<vehicle id="Auto_317" type="MotorCycle" route="route_9" depart="104" />
<vehicle id="Auto_318" type="Car" route="route_9" depart="104" />
<vehicle id="MotorCycle_319" type="MotorCycle" route="route_21" depart="104" />
<vehicle id="Car_320" type="MotorCycle" route="route_3" depart="105" />
<vehicle id="Bus_321" type="MotorCycle" route="route_22" depart="105" />
<vehicle id="Auto_322" type="MotorCycle" route="route_21" depart="106" />
<vehicle id="Auto_323" type="MotorCycle" route="route_24" depart="106" />
<vehicle id="Auto_324" type="Car" route="route_24" depart="106" />
<vehicle id="Auto_325" type="Car" route="route_21" depart="108" />
<vehicle id="Bus_326" type="MotorCycle" route="route_24" depart="108" />
<vehicle id="Car_327" type="MotorCycle" route="route_12" depart="109" />
<vehicle id="MotorCycle_328" type="MotorCycle" route="route_23" depart="109" />
<vehicle id="MotorCycle_329" type="MotorCycle" route="route_24" depart="109" />
<vehicle id="Car_330" type="MotorCycle" route="route_24" depart="110" />
<vehicle id="Car_331" type="Auto" route="route_21" depart="111" />
<vehicle id="Car_332" type="MotorCycle" route="route_21" depart="111" />
<vehicle id="Car_333" type="MotorCycle" route="route_22" depart="111" />
<vehicle id="Car_334" type="Car" route="route_22" depart="111" />
<vehicle id="Bus_335" type="Bus" route="route_24" depart="111" />
<vehicle id="Bus_336" type="MotorCycle" route="route_24" depart="111" />
<vehicle id="Bus_337" type="MotorCycle" route="route_22" depart="112" />
<vehicle id="Auto_338" type="Car" route="route_24" depart="112" />
<vehicle id="Car_339" type="MotorCycle" route="route_11" depart="113" />
<vehicle id="Car_340" type="Car" route="route_11" depart="113" />
<vehicle id="Car_341" type="MotorCycle" route="route_14" depart="113" />
<vehicle id="Car_342" type="MotorCycle" route="route_22" depart="113" />
<vehicle id="Bus_343" type="MotorCycle" route="route_2" depart="114" />
<vehicle id="Car_344" type="Auto" route="route_19" depart="114" />
<vehicle id="Car_345" type="MotorCycle" route="route_19" depart="114" />
<vehicle id="MotorCycle_346" type="MotorCycle" route="route_22" depart="114" />
<vehicle id="Auto_347" type="MotorCycle" route="route_20" depart="115" />
<vehicle id="Car_348" type="MotorCycle" route="route_21" depart="115" />
<vehicle id="Car_349" type="Auto" route="route_22" depart="115" />
<vehicle id="Car_350" type="MotorCycle" route="route_22" depart="115" />
<vehicle id="MotorCycle_351" type="Car" route="route_22" depart="116" />
<vehicle id="Auto_352" type="MotorCycle" route="route_21" depart="117" />
<vehicle id="Car_353" type="Bus" route="route_22" depart="117" />
<vehicle id="Car_354" type="MotorCycle" route="route_22" depart="117" />
<vehicle id="Car_355" type="MotorCycle" route="route_23" depart="117" />
<vehicle id="Auto_356" type="MotorCycle" route="route_10" depart="118" />
<vehicle id="Bus_357" type="MotorCycle" route="route_22" depart="118" />
<vehicle id="MotorCycle_358" type="MotorCycle" route="route_24" depart="118" />
<vehicle id="Car_359" type="Car" route="route_11" depart="119" />
<vehicle id="Car_360" type="MotorCycle" route="route_14" depart="119" />
<vehicle id="MotorCycle_361" type="MotorCycle" route="route_24" depart="120" />
<vehicle id="Bus_362" type="Auto" route="route_21" depart="121" />
<vehicle id="Bus_363" type="MotorCycle" route="route_21" depart="121" />
<vehicle id="Car_364" type="MotorCycle" route="route_24" depart="121" />
<vehicle id="MotorCycle_365" type="MotorCycle" route="route_21" depart="122" />
<vehicle id="MotorCycle_366" type="Car" route="route_21" depart="122" />
<vehicle id="Car_367" type="MotorCycle" route="route_22" depart="122" />
<vehicle id="Car_368" type="MotorCycle" route="route_24" depart="122" />
<vehicle id="Auto_369" type="Car" route="route_1" depart="123" />
<vehicle id="Car_370" type="MotorCycle" route="route_22" depart="123" />
<vehicle id="MotorCycle_371" type="MotorCycle" route="route_19" depart="124" />
<vehicle id="Auto_372" type="MotorCycle" route="route_24" depart="124" />
<vehicle id="Auto_373" type="Car" route="route_24" depart="124" />
<vehicle id="Bus_374" type="MotorCycle" route="route_1" depart="126" />