<routes>
<vType id="Bus" accel="0.6" decel="3.5" sigma="0.5" length="10.1" minGap="1.0" maxSpeed="16.67" carFollowModel="Wiedemann" guiShape="bus" width="2.45" latAlignment="left" laneChangeModel="SL2015" lcStrategic="0.5" lcCooperative="0.0"/>
<vType id="Auto" accel="0.7" decel="4.5" sigma="0.5" length="2.6" minGap="0.3" maxSpeed="16" carFollowModel="Wiedemann" guiShape="passenger/sedan" width="1.25" latAlignment="left" laneChangeModel="SL2015" lcStrategic="0.5" lcCooperative="0.0" />
<vType id="MotorCycle" accel="0.9" decel="3.5" sigma="0.5" length="1.85" minGap="0.15"  carFollowModel="Wiedemann" maxSpeed="17" guiShape="motorcycle" width="0.7" latAlignment="left" laneChangeModel="SL2015" lcStrategic="0.5" lcCooperative="0.0"/>
<vType id="Car" accel="0.8" decel="4.5" sigma="0.5" length="3.6" minGap="0.5" maxSpeed="40" carFollowModel="Wiedemann" guiShape="passenger" width="1.5" latAlignment="left" laneChangeModel="SL2015" lcStrategic="0.5" lcCooperative="0.0"/>
<vType id="emergency" accel="2.8" decel="5.5" sigma="0.5" length="3.6" minGap="0.5" maxSpeed="120.6" carFollowModel="Wiedemann" guiShape="emergency" width="1.5" latAlignment="left" laneChangeModel="SL2015" lcStrategic="0.5" lcCooperative="0.0" vClass="emergency" speedFactor="1.9" jmDriveAfterRedTime="300" jmDriveAfterRedSpeed="5.56">
<param key="has.bluelight.device" value="true"/>
<param key="has.fcd.device" value="true"/> 
</vType>
<route id="route_0" edges="1i 52i gneE0 gneE2" />
<route id="route_1" edges="-gneE2 -gneE0 52o 2i 1o" />
        <route id="route_2" edges="4i 3o" />
        <route id="route_3" edges="3i 4o" />
        <route id="route_4" edges="-gneE1 gneE3" /> 
        <route id="route_5" edges="4i 1o" />
        <route id="route_6" edges="4i 2o 52i gneE0 gneE1" />
        <route id="route_7" edges="2i 4o" />
        <route id="route_8" edges="2i 3o" />
        <route id="route_9" edges="-gneE1 gneE3" />
        <route id="route_10" edges="3i 2o 52i gneE0 gneE3" />
        <route id="route_11" edges="3i 1o" />
        <route id="route_12" edges="-gneE1 -gneE0 52o 2i 4o" />
        <route id="route_13" edges="-gneE1 gneE2" />
        <route id="route_14" edges="-gneE2 gneE1" />
        <route id="route_15" edges="-gneE2 gneE3" />
        <route id="route_16" edges="-gneE3 -gneE0 52o 2i 3o" />
        <route id="route_17" edges="-gneE3 gneE2" />
        <route id="route_18" edges="gneE0 gneE3" />
        <route id="route_19" edges="gneE0 gneE1" />
        <route id="route_20" edges="1i 2o 52i gneE0 gneE2 -gneE4 gneE5" />
        <route id="route_21" edges="-gneE5 gneE4 -gneE2 -gneE0 52o 2i 1o" />
        <route id="route_22" edges="-gneE5 gneE4 -gneE2 -gneE0 52o 2i 3o" />
        <route id="route_23" edges="1i 2o 52i gneE0 gneE2 -gneE4 gneE7" />

	<route id="route_24" edges="gneE0"/>
<vehicle id="emergency_0" type="emergency" route="route_7" depart="0" />
<vehicle id="Bus_0" type="Bus" route="route_7" depart="0" />
<vehicle id="Car_0" type="Car" route="route_16" depart="0" />
<vehicle id="Car_1" type="MotorCycle" route="route_7" depart="1" />
<vehicle id="MotorCycle_2" type="Auto" route="route_15" depart="1" />
<vehicle id="MotorCycle_3" type="MotorCycle" route="route_15" depart="1" />
<vehicle id="Bus_4" type="MotorCycle" route="route_22" depart="1" />
<vehicle id="Car_5" type="MotorCycle" route="route_5" depart="3" />
<vehicle id="Car_6" type="MotorCycle" route="route_22" depart="3" />
<vehicle id="Car_7" type="MotorCycle" route="route_22" depart="4" />
<vehicle id="Car_8" type="Car" route="route_22" depart="4" />
<vehicle id="Auto_9" type="MotorCycle" route="route_3" depart="5" />
<vehicle id="Auto_10" type="MotorCycle" route="route_12" depart="5" />
<vehicle id="MotorCycle_11" type="MotorCycle" route="route_19" depart="5" />
<vehicle id="MotorCycle_12" type="MotorCycle" route="route_22" depart="5" />
<vehicle id="Auto_13" type="MotorCycle" route="route_24" depart="5" />
<vehicle id="Bus_14" type="MotorCycle" route="route_4" depart="6" />
<vehicle id="MotorCycle_15" type="MotorCycle" route="route_19" depart="6" />
<vehicle id="Bus_16" type="MotorCycle" route="route_21" depart="6" />
<vehicle id="Bus_17" type="Bus" route="route_21" depart="7" />
<vehicle id="Bus_18" type="MotorCycle" route="route_21" depart="7" />
<vehicle id="Car_19" type="MotorCycle" route="route_21" depart="9" />
<vehicle id="MotorCycle_20" type="MotorCycle" route="route_22" depart="9" />
<vehicle id="MotorCycle_21" type="MotorCycle" route="route_23" depart="9" />
<vehicle id="Car_22" type="Car" route="route_22" depart="10" />
<vehicle id="MotorCycle_23" type="MotorCycle" route="route_23" depart="10" />
<vehicle id="Auto_24" type="MotorCycle" route="route_24" depart="10" />
<vehicle id="Car_25" type="MotorCycle" route="route_20" depart="11" />
<vehicle id="Car_26" type="Auto" route="route_21" depart="11" />
<vehicle id="Car_27" type="MotorCycle" route="route_21" depart="11" />
<vehicle id="Auto_28" type="MotorCycle" route="route_23" depart="11" />
<vehicle id="Auto_29" type="Car" route="route_23" depart="11" />
<vehicle id="MotorCycle_30" type="MotorCycle" route="route_1" depart="12" />
<vehicle id="Car_31" type="MotorCycle" route="route_10" depart="12" />
<vehicle id="Car_32" type="MotorCycle" route="route_19" depart="13" />
<vehicle id="Bus_33" type="MotorCycle" route="route_22" depart="13" />
<vehicle id="MotorCycle_34" type="MotorCycle" route="route_21" depart="14" />
<vehicle id="MotorCycle_35" type="MotorCycle" route="route_22" depart="14" />
<vehicle id="Auto_36" type="MotorCycle" route="route_23" depart="14" />
<vehicle id="Auto_37" type="Car" route="route_23" depart="14" />
<vehicle id="Car_38" type="MotorCycle" route="route_10" depart="15" />
<vehicle id="Car_39" type="Car" route="route_10" depart="15" />
<vehicle id="Bus_40" type="MotorCycle" route="route_19" depart="15" />
<vehicle id="Auto_41" type="MotorCycle" route="route_22" depart="15" />
<vehicle id="Auto_42" type="MotorCycle" route="route_21" depart="16" />
<vehicle id="Auto_43" type="MotorCycle" route="route_19" depart="17" />
<vehicle id="MotorCycle_44" type="MotorCycle" route="route_20" depart="17" />
<vehicle id="Auto_45" type="MotorCycle" route="route_20" depart="18" />
<vehicle id="Auto_46" type="MotorCycle" route="route_22" depart="18" />
<vehicle id="Auto_47" type="Car" route="route_22" depart="18" />
<vehicle id="Car_48" type="MotorCycle" route="route_24" depart="18" />
<vehicle id="Bus_49" type="MotorCycle" route="route_9" depart="19" />
<vehicle id="Auto_50" type="MotorCycle" route="route_22" depart="19" />
<vehicle id="Auto_51" type="Car" route="route_22" depart="19" />
<vehicle id="MotorCycle_52" type="MotorCycle" route="route_21" depart="20" />
<vehicle id="Bus_53" type="MotorCycle" route="route_21" depart="21" />
<vehicle id="Bus_54" type="MotorCycle" route="route_22" depart="21" />
<vehicle id="Auto_55" type="MotorCycle" route="route_23" depart="21" />
<vehicle id="MotorCycle_56" type="MotorCycle" route="route_24" depart="21" />
<vehicle id="MotorCycle_57" type="Car" route="route_24" depart="21" />
<vehicle id="Auto_58" type="MotorCycle" route="route_4" depart="22" />
<vehicle id="Auto_59" type="MotorCycle" route="route_22" depart="22" />
<vehicle id="MotorCycle_60" type="MotorCycle" route="route_23" depart="22" />
<vehicle id="MotorCycle_61" type="Car" route="route_23" depart="22" />
<vehicle id="Car_62" type="MotorCycle" route="route_20" depart="23" />
<vehicle id="Bus_63" type="MotorCycle" route="route_22" depart="23" />
<vehicle id="Bus_64" type="MotorCycle" route="route_23" depart="23" />
<vehicle id="Bus_65" type="MotorCycle" route="route_21" depart="24" />
<vehicle id="Auto_66" type="MotorCycle" route="route_23" depart="24" />
<vehicle id="MotorCycle_67" type="MotorCycle" route="route_1" depart="25" />
<vehicle id="Auto_68" type="MotorCycle" route="route_12" depart="25" />
<vehicle id="Auto_69" type="MotorCycle" route="route_21" depart="25" />
<vehicle id="Bus_70" type="MotorCycle" route="route_22" depart="25" />
<vehicle id="Auto_71" type="Auto" route="route_7" depart="26" />
<vehicle id="Auto_72" type="MotorCycle" route="route_7" depart="26" />
<vehicle id="Auto_73" type="Car" route="route_7" depart="26" />
<vehicle id="Car_74" type="MotorCycle" route="route_21" depart="26" />
<vehicle id="MotorCycle_75" type="MotorCycle" route="route_23" depart="26" />
<vehicle id="Car_76" type="MotorCycle" route="route_24" depart="26" />
<vehicle id="Auto_77" type="MotorCycle" route="route_20" depart="27" />
<vehicle id="MotorCycle_78" type="Auto" route="route_24" depart="27" />
<vehicle id="MotorCycle_79" type="MotorCycle" route="route_24" depart="27" />
<vehicle id="Auto_80" type="MotorCycle" route="route_7" depart="28" />
<vehicle id="Auto_81" type="MotorCycle" route="route_20" depart="28" />
<vehicle id="MotorCycle_82" type="MotorCycle" route="route_22" depart="28" />
<vehicle id="MotorCycle_83" type="MotorCycle" route="route_8" depart="29" />
<vehicle id="Car_84" type="MotorCycle" route="route_11" depart="29" />
<vehicle id="Auto_85" type="Auto" route="route_21" depart="29" />
<vehicle id="Auto_86" type="MotorCycle" route="route_22" depart="30" />
<vehicle id="Car_87" type="MotorCycle" route="route_23" depart="30" />
<vehicle id="Bus_88" type="MotorCycle" route="route_4" depart="31" />
<vehicle id="Bus_89" type="Car" route="route_4" depart="31" />
<vehicle id="Car_90" type="MotorCycle" route="route_8" depart="31" />
<vehicle id="Car_91" type="Car" route="route_8" depart="31" />
<vehicle id="Auto_92" type="MotorCycle" route="route_11" depart="32" />
<vehicle id="Auto_93" type="Car" route="route_11" depart="32" />
<vehicle id="Bus_94" type="MotorCycle" route="route_18" depart="32" />
<vehicle id="Bus_95" type="MotorCycle" route="route_21" depart="32" />
<vehicle id="MotorCycle_96" type="MotorCycle" route="route_22" depart="32" />
<vehicle id="Bus_97" type="Auto" route="route_24" depart="32" />
<vehicle id="Bus_98" type="MotorCycle" route="route_24" depart="33" />
<vehicle id="Bus_99" type="MotorCycle" route="route_22" depart="34" />
<vehicle id="Bus_100" type="Car" route="route_23" depart="34" />
<vehicle id="Bus_101" type="MotorCycle" route="route_24" depart="35" />
<vehicle id="Bus_102" type="MotorCycle" route="route_21" depart="36" />
<vehicle id="Car_103" type="MotorCycle" route="route_22" depart="36" />
<vehicle id="Car_104" type="MotorCycle" route="route_19" depart="37" />
<vehicle id="Auto_105" type="MotorCycle" route="route_21" depart="37" />
<vehicle id="Auto_106" type="Car" route="route_21" depart="37" />
<vehicle id="Car_107" type="MotorCycle" route="route_22" depart="37" />
<vehicle id="Bus_108" type="MotorCycle" route="route_24" depart="37" />
<vehicle id="Bus_109" type="MotorCycle" route="route_3" depart="38" />
<vehicle id="Car_110" type="MotorCycle" route="route_23" depart="38" />
<vehicle id="Auto_111" type="MotorCycle" route="route_20" depart="39" />
<vehicle id="MotorCycle_112" type="MotorCycle" route="route_23" depart="39" />
<vehicle id="Auto_113" type="MotorCycle" route="route_11" depart="41" />
<vehicle id="Bus_114" type="MotorCycle" route="route_22" depart="41" />
<vehicle id="MotorCycle_115" type="MotorCycle" route="route_23" depart="41" />
<vehicle id="MotorCycle_116" type="Car" route="route_23" depart="41" />
<vehicle id="Car_117" type="MotorCycle" route="route_19" depart="42" />
<vehicle id="Bus_118" type="MotorCycle" route="route_21" depart="42" />
<vehicle id="Car_119" type="Auto" route="route_22" depart="42" />
<vehicle id="Car_120" type="MotorCycle" route="route_22" depart="42" />
<vehicle id="MotorCycle_121" type="Auto" route="route_24" depart="42" />
<vehicle id="MotorCycle_122" type="MotorCycle" route="route_3" depart="43" />
<vehicle id="MotorCycle_123" type="Car" route="route_3" depart="43" />
<vehicle id="Bus_124" type="Bus" route="route_16" depart="43" />
<vehicle id="Bus_125" type="MotorCycle" route="route_16" depart="43" />
<vehicle id="Car_126" type="Auto" route="route_23" depart="43" />
<vehicle id="Car_127" type="MotorCycle" route="route_23" depart="43" />
<vehicle id="Auto_128" type="MotorCycle" route="route_24" depart="43" />
<vehicle id="Auto_129" type="Car" route="route_24" depart="43" />
<vehicle id="Car_130" type="Auto" route="route_19" depart="44" />
<vehicle id="Car_131" type="MotorCycle" route="route_19" depart="44" />
<vehicle id="Car_132" type="Car" route="route_19" depart="44" />
<vehicle id="MotorCycle_133" type="MotorCycle" route="route_21" depart="45" />
<vehicle id="Bus_134" type="MotorCycle" route="route_3" depart="46" />
<vehicle id="Car_135" type="MotorCycle" route="route_8" depart="46" />
<vehicle id="Bus_136" type="MotorCycle" route="route_21" depart="46" />
<vehicle id="MotorCycle_137" type="MotorCycle" route="route_23" depart="46" />
<vehicle id="MotorCycle_138" type="MotorCycle" route="route_24" depart="46" />
<vehicle id="Bus_139" type="MotorCycle" route="route_4" depart="47" />
<vehicle id="MotorCycle_140" type="MotorCycle" route="route_22" depart="47" />
<vehicle id="Car_141" type="MotorCycle" route="route_9" depart="48" />
<vehicle id="Bus_142" type="MotorCycle" route="route_21" depart="48" />
<vehicle id="MotorCycle_143" type="MotorCycle" route="route_22" depart="49" />
<vehicle id="Auto_144" type="Auto" route="route_23" depart="49" />
<vehicle id="Auto_145" type="MotorCycle" route="route_23" depart="49" />
<vehicle id="MotorCycle_146" type="MotorCycle" route="route_24" depart="49" />
<vehicle id="MotorCycle_147" type="Car" route="route_24" depart="49" />
<vehicle id="Car_148" type="MotorCycle" route="route_15" depart="50" />
<vehicle id="Auto_149" type="MotorCycle" route="route_21" depart="50" />
<vehicle id="MotorCycle_150" type="MotorCycle" route="route_22" depart="50" />
<vehicle id="MotorCycle_151" type="Car" route="route_22" depart="50" />
<vehicle id="Car_152" type="MotorCycle" route="route_23" depart="50" />
<vehicle id="MotorCycle_153" type="MotorCycle" route="route_3" depart="51" />
<vehicle id="Car_154" type="MotorCycle" route="route_10" depart="51" />
<vehicle id="Car_155" type="MotorCycle" route="route_21" depart="51" />
<vehicle id="Auto_156" type="MotorCycle" route="route_23" depart="52" />
<vehicle id="Bus_157" type="MotorCycle" route="route_24" depart="52" />
<vehicle id="MotorCycle_158" type="Bus" route="route_2" depart="53" />
<vehicle id="MotorCycle_159" type="MotorCycle" route="route_2" depart="53" />
<vehicle id="Auto_160" type="Auto" route="route_20" depart="53" />
<vehicle id="Auto_161" type="MotorCycle" route="route_20" depart="53" />
<vehicle id="Auto_162" type="MotorCycle" route="route_6" depart="54" />
<vehicle id="Auto_163" type="Auto" route="route_20" depart="54" />
<vehicle id="Auto_164" type="MotorCycle" route="route_20" depart="54" />
<vehicle id="MotorCycle_165" type="Auto" route="route_24" depart="54" />
<vehicle id="MotorCycle_166" type="MotorCycle" route="route_24" depart="54" />
<vehicle id="Auto_167" type="Car" route="route_10" depart="55" />
<vehicle id="Car_168" type="MotorCycle" route="route_21" depart="55" />
<vehicle id="Auto_169" type="MotorCycle" route="route_22" depart="55" />
<vehicle id="Car_170" type="MotorCycle" route="route_19" depart="56" />
<vehicle id="Car_171" type="MotorCycle" route="route_21" depart="56" />
<vehicle id="Auto_172" type="MotorCycle" route="route_22" depart="56" />
<vehicle id="Auto_173" type="Car" route="route_22" depart="56" />
<vehicle id="Car_174" type="MotorCycle" route="route_5" depart="58" />
<vehicle id="MotorCycle_175" type="MotorCycle" route="route_24" depart="58" />
<vehicle id="Car_176" type="MotorCycle" route="route_20" depart="59" />
<vehicle id="Car_177" type="Car" route="route_20" depart="59" />
<vehicle id="Bus_178" type="MotorCycle" route="route_23" depart="59" />
<vehicle id="Car_179" type="MotorCycle" route="route_5" depart="60" />
<vehicle id="Car_180" type="MotorCycle" route="route_22" depart="60" />
<vehicle id="MotorCycle_181" type="Auto" route="route_24" depart="60" />
<vehicle id="MotorCycle_182" type="MotorCycle" route="route_24" depart="60" />
<vehicle id="MotorCycle_183" type="MotorCycle" route="route_1" depart="61" />
<vehicle id="Auto_184" type="MotorCycle" route="route_3" depart="61" />
<vehicle id="Bus_185" type="MotorCycle" route="route_11" depart="61" />
<vehicle id="MotorCycle_186" type="Car" route="route_19" depart="61" />
<vehicle id="Auto_187" type="MotorCycle" route="route_21" depart="61" />
<vehicle id="Auto_188" type="MotorCycle" route="route_19" depart="62" />
<vehicle id="Bus_189" type="Auto" route="route_22" depart="63" />
<vehicle id="Bus_190" type="MotorCycle" route="route_22" depart="63" />
<vehicle id="MotorCycle_191" type="MotorCycle" route="route_23" depart="63" />
<vehicle id="MotorCycle_192" type="Car" route="route_23" depart="63" />
<vehicle id="MotorCycle_193" type="MotorCycle" route="route_4" depart="64" />
<vehicle id="Auto_194" type="MotorCycle" route="route_15" depart="64" />
<vehicle id="Auto_195" type="MotorCycle" route="route_21" depart="64" />
<vehicle id="Bus_196" type="MotorCycle" route="route_22" depart="64" />
<vehicle id="Auto_197" type="MotorCycle" route="route_23" depart="64" />
<vehicle id="Bus_198" type="MotorCycle" route="route_5" depart="65" />
<vehicle id="Bus_199" type="MotorCycle" route="route_13" depart="65" />
<vehicle id="Bus_200" type="MotorCycle" route="route_21" depart="65" />
<vehicle id="MotorCycle_201" type="MotorCycle" route="route_21" depart="66" />
<vehicle id="Auto_202" type="MotorCycle" route="route_22" depart="66" />
<vehicle id="Bus_203" type="MotorCycle" route="route_23" depart="66" />
<vehicle id="MotorCycle_204" type="Auto" route="route_20" depart="67" />
<vehicle id="MotorCycle_205" type="MotorCycle" route="route_20" depart="67" />
<vehicle id="MotorCycle_206" type="MotorCycle" route="route_21" depart="67" />
<vehicle id="MotorCycle_207" type="Auto" route="route_6" depart="68" />
<vehicle id="MotorCycle_208" type="MotorCycle" route="route_6" depart="68" />
<vehicle id="Car_209" type="MotorCycle" route="route_23" depart="68" />
<vehicle id="MotorCycle_210" type="MotorCycle" route="route_24" depart="68" />
<vehicle id="Bus_211" type="MotorCycle" route="route_2" depart="69" />
<vehicle id="Bus_212" type="MotorCycle" route="route_21" depart="69" />
<vehicle id="Auto_213" type="MotorCycle" route="route_22" depart="69" />
<vehicle id="MotorCycle_214" type="MotorCycle" route="route_14" depart="71" />
<vehicle id="Auto_215" type="MotorCycle" route="route_20" depart="71" />
<vehicle id="Bus_216" type="MotorCycle" route="route_22" depart="71" />
<vehicle id="MotorCycle_217" type="MotorCycle" route="route_1" depart="72" />
<vehicle id="Car_218" type="MotorCycle" route="route_4" depart="72" />
<vehicle id="Auto_219" type="Bus" route="route_8" depart="72" />
<vehicle id="Auto_220" type="MotorCycle" route="route_8" depart="72" />
<vehicle id="Bus_221" type="MotorCycle" route="route_20" depart="72" />
<vehicle id="Car_222" type="Bus" route="route_22" depart="72" />
<vehicle id="Auto_223" type="MotorCycle" route="route_24" depart="72" />
<vehicle id="Auto_224" type="MotorCycle" route="route_21" depart="73" />
<vehicle id="MotorCycle_225" type="MotorCycle" route="route_22" depart="73" />
<vehicle id="Bus_226" type="MotorCycle" route="route_24" depart="73" />
<vehicle id="Car_227" type="MotorCycle" route="route_4" depart="74" />
<vehicle id="Car_228" type="Car" route="route_4" depart="74" />
<vehicle id="Auto_229" type="MotorCycle" route="route_19" depart="74" />
<vehicle id="Auto_230" type="Car" route="route_19" depart="74" />
<vehicle id="Bus_231" type="MotorCycle" route="route_22" depart="74" />
<vehicle id="Bus_232" type="MotorCycle" route="route_2" depart="75" />
<vehicle id="MotorCycle_233" type="MotorCycle" route="route_21" depart="75" />
<vehicle id="Bus_234" type="MotorCycle" route="route_23" depart="75" />
<vehicle id="Bus_235" type="MotorCycle" route="route_10" depart="76" />
<vehicle id="Bus_236" type="Car" route="route_10" depart="76" />
<vehicle id="Bus_237" type="MotorCycle" route="route_24" depart="76" />
<vehicle id="Bus_238" type="MotorCycle" route="route_8" depart="77" />
<vehicle id="Car_239" type="MotorCycle" route="route_11" depart="77" />
<vehicle id="Car_240" type="Car" route="route_11" depart="77" />
<vehicle id="MotorCycle_241" type="MotorCycle" route="route_19" depart="77" />
<vehicle id="MotorCycle_242" type="MotorCycle" route="route_23" depart="77" />
<vehicle id="Bus_243" type="MotorCycle" route="route_6" depart="78" />
<vehicle id="Auto_244" type="MotorCycle" route="route_21" depart="78" />
<vehicle id="Bus_245" type="MotorCycle" route="route_22" depart="79" />
<vehicle id="Bus_246" type="MotorCycle" route="route_21" depart="80" />
<vehicle id="Auto_247" type="Auto" route="route_23" depart="80" />
<vehicle id="Auto_248" type="MotorCycle" route="route_23" depart="80" />
<vehicle id="Auto_249" type="Car" route="route_23" depart="80" />
<vehicle id="Car_250" type="MotorCycle" route="route_19" depart="81" />
<vehicle id="Car_251" type="Car" route="route_19" depart="81" />
<vehicle id="Car_252" type="MotorCycle" route="route_23" depart="81" />
<vehicle id="Car_253" type="MotorCycle" route="route_17" depart="83" />
<vehicle id="Car_254" type="Car" route="route_17" depart="83" />
<vehicle id="MotorCycle_255" type="MotorCycle" route="route_22" depart="83" />
<vehicle id="Car_256" type="MotorCycle" route="route_24" depart="83" />
<vehicle id="Bus_257" type="MotorCycle" route="route_21" depart="84" />
<vehicle id="Bus_258" type="MotorCycle" route="route_23" depart="84" />
<vehicle id="Car_259" type="MotorCycle" route="route_21" depart="85" />
<vehicle id="MotorCycle_260" type="MotorCycle" route="route_22" depart="85" />
<vehicle id="Car_261" type="MotorCycle" route="route_10" depart="86" />
<vehicle id="Auto_262" type="MotorCycle" route="route_21" depart="86" />
<vehicle id="Car_263" type="MotorCycle" route="route_21" depart="87" />
<vehicle id="MotorCycle_264" type="MotorCycle" route="route_22" depart="87" />
<vehicle id="Auto_265" type="Auto" route="route_24" depart="87" />
<vehicle id="MotorCycle_266" type="MotorCycle" route="route_21" depart="88" />
<vehicle id="Bus_267" type="MotorCycle" route="route_19" depart="89" />
<vehicle id="Bus_268" type="MotorCycle" route="route_22" depart="89" />
<vehicle id="MotorCycle_269" type="MotorCycle" route="route_22" depart="90" />
<vehicle id="Auto_270" type="MotorCycle" route="route_24" depart="90" />
<vehicle id="MotorCycle_271" type="MotorCycle" route="route_21" depart="91" />
<vehicle id="MotorCycle_272" type="MotorCycle" route="route_23" depart="91" />
<vehicle id="MotorCycle_273" type="Car" route="route_23" depart="91" />
<vehicle id="MotorCycle_274" type="MotorCycle" route="route_24" depart="91" />
<vehicle id="Car_275" type="MotorCycle" route="route_19" depart="92" />
<vehicle id="Bus_276" type="MotorCycle" route="route_24" depart="92" />
<vehicle id="Bus_277" type="Car" route="route_24" depart="92" />
<vehicle id="MotorCycle_278" type="MotorCycle" route="route_20" depart="93" />
<vehicle id="Car_279" type="MotorCycle" route="route_21" depart="93" />
<vehicle id="Bus_280" type="Auto" route="route_22" depart="93" />
<vehicle id="Bus_281" type="MotorCycle" route="route_22" depart="93" />
<vehicle id="MotorCycle_282" type="Auto" route="route_24" depart="93" />
<vehicle id="MotorCycle_283" type="MotorCycle" route="route_24" depart="93" />
<vehicle id="Car_284" type="Auto" route="route_11" depart="94" />
<vehicle id="Auto_285" type="MotorCycle" route="route_20" depart="94" />
<vehicle id="Auto_286" type="Car" route="route_20" depart="94" />
<vehicle id="Car_287" type="MotorCycle" route="route_7" depart="95" />
<vehicle id="Bus_288" type="MotorCycle" route="route_19" depart="95" />
<vehicle id="Auto_289" type="MotorCycle" route="route_20" depart="95" />
<vehicle id="Car_290" type="MotorCycle" route="route_21" depart="95" />
<vehicle id="MotorCycle_291" type="MotorCycle" route="route_22" depart="95" />
<vehicle id="MotorCycle_292" type="Car" route="route_22" depart="95" />
<vehicle id="MotorCycle_293" type="MotorCycle" route="route_3" depart="96" />
<vehicle id="MotorCycle_294" type="Auto" route="route_5" depart="96" />
<vehicle id="MotorCycle_295" type="MotorCycle" route="route_5" depart="96" />
<vehicle id="MotorCycle_296" type="Car" route="route_5" depart="96" />
<vehicle id="Bus_297" type="MotorCycle" route="route_21" depart="96" />
<vehicle id="Bus_298" type="Car" route="route_21" depart="96" />
<vehicle id="MotorCycle_299" type="MotorCycle" route="route_22" depart="96" />
<vehicle id="Bus_300" type="MotorCycle" route="route_4" depart="97" />
<vehicle id="MotorCycle_301" type="MotorCycle" route="route_22" depart="98" />
<vehicle id="Car_302" type="MotorCycle" route="route_20" depart="99" />
<vehicle id="Car_303" type="Car" route="route_20" depart="99" />
<vehicle id="Car_304" type="MotorCycle" route="route_22" depart="99" />
<vehicle id="MotorCycle_305" type="MotorCycle" route="route_17" depart="100" />
<vehicle id="Auto_306" type="MotorCycle" route="route_21" depart="100" />
<vehicle id="Bus_307" type="MotorCycle" route="route_16" depart="101" />
<vehicle id="Car_308" type="MotorCycle" route="route_21" depart="101" />
<vehicle id="Car_309" type="MotorCycle" route="route_23" depart="101" />
<vehicle id="Car_310" type="MotorCycle" route="route_7" depart="102" />
<vehicle id="MotorCycle_311" type="MotorCycle" route="route_22" depart="102" />
<vehicle id="MotorCycle_312" type="MotorCycle" route="route_19" depart="103" />
<vehicle id="MotorCycle_313" type="Car" route="route_19" depart="103" />
<vehicle id="MotorCycle_314" type="MotorCycle" route="route_20" depart="103" />
<vehicle id="Bus_315" type="MotorCycle" route="route_21" depart="103" />
<vehicle id="Bus_316" type="Car" route="route_21" depart="103" />
<vehicle id="Auto_317" type="MotorCycle" route="route_24" depart="103" />
<vehicle id="Car_318" type="MotorCycle" route="route_20" depart="104" />
<vehicle id="Bus_319" type="MotorCycle" route="route_21" depart="104" />
<vehicle id="Bus_320" type="MotorCycle" route="route_22" depart="104" />
<vehicle id="Bus_321" type="Car" route="route_22" depart="104" />
<vehicle id="Car_322" type="Auto" route="route_21" depart="105" />
<vehicle id="MotorCycle_323" type="MotorCycle" route="route_3" depart="106" />
<vehicle id="Car_324" type="MotorCycle" route="route_22" depart="106" />
<vehicle id="Bus_325" type="Car" route="route_23" depart="106" />
<vehicle id="MotorCycle_326" type="MotorCycle" route="route_22" depart="107" />
<vehicle id="MotorCycle_327" type="MotorCycle" route="route_24" depart="107" />
<vehicle id="Bus_328" type="MotorCycle" route="route_7" depart="108" />
<vehicle id="MotorCycle_329" type="MotorCycle" route="route_20" depart="108" />
<vehicle id="MotorCycle_330" type="Car" route="route_21" depart="108" />
<vehicle id="Auto_331" type="MotorCycle" route="route_22" depart="108" />
<vehicle id="Auto_332" type="MotorCycle" route="route_21" depart="109" />
<vehicle id="Car_333" type="MotorCycle" route="route_22" depart="109" />
<vehicle id="Bus_334" type="MotorCycle" route="route_17" depart="110" />
<vehicle id="Bus_335" type="Car" route="route_17" depart="110" />
<vehicle id="Auto_336" type="MotorCycle" route="route_19" depart="110" />
<vehicle id="MotorCycle_337" type="MotorCycle" route="route_1" depart="111" />
<vehicle id="Auto_338" type="MotorCycle" route="route_20" depart="111" />
<vehicle id="Bus_339" type="MotorCycle" route="route_21" depart="111" />
<vehicle id="Bus_340" type="Car" route="route_21" depart="111" />
<vehicle id="MotorCycle_341" type="MotorCycle" route="route_22" depart="111" />
<vehicle id="Bus_342" type="MotorCycle" route="route_23" depart="111" />
<vehicle id="Car_343" type="MotorCycle" route="route_4" depart="112" />
<vehicle id="Car_344" type="MotorCycle" route="route_21" depart="112" />
<vehicle id="Car_345" type="Car" route="route_21" depart="112" />
<vehicle id="Auto_346" type="MotorCycle" route="route_19" depart="113" />
<vehicle id="Bus_347" type="MotorCycle" route="route_20" depart="113" />
<vehicle id="Car_348" type="MotorCycle" route="route_22" depart="113" />
<vehicle id="MotorCycle_349" type="MotorCycle" route="route_23" depart="113" />
<vehicle id="Car_350" type="MotorCycle" route="route_3" depart="114" />
<vehicle id="MotorCycle_351" type="MotorCycle" route="route_20" depart="114" />
<vehicle id="Auto_352" type="MotorCycle" route="route_21" depart="114" />
<vehicle id="Bus_353" type="MotorCycle" route="route_24" depart="114" />
<vehicle id="Auto_354" type="MotorCycle" route="route_3" depart="116" />
<vehicle id="Car_355" type="MotorCycle" route="route_4" depart="116" />
<vehicle id="Car_356" type="Car" route="route_4" depart="116" />
<vehicle id="Car_357" type="MotorCycle" route="route_20" depart="116" />
<vehicle id="Car_358" type="Car" route="route_20" depart="116" />
<vehicle id="Car_359" type="MotorCycle" route="route_21" depart="116" />
<vehicle id="Car_360" type="MotorCycle" route="route_23" depart="116" />
<vehicle id="Car_361" type="MotorCycle" route="route_20" depart="117" />
<vehicle id="Car_362" type="Car" route="route_20" depart="117" />
<vehicle id="Auto_363" type="MotorCycle" route="route_23" depart="117" />
<vehicle id="MotorCycle_364" type="MotorCycle" route="route_2" depart="118" />
<vehicle id="MotorCycle_365" type="Car" route="route_2" depart="118" />
<vehicle id="Bus_366" type="MotorCycle" route="route_23" depart="118" />
<vehicle id="Auto_367" type="MotorCycle" route="route_11" depart="119" />
<vehicle id="Car_368" type="Auto" route="route_21" depart="119" />
<vehicle id="Car_369" type="MotorCycle" route="route_21" depart="119" />
<vehicle id="Bus_370" type="MotorCycle" route="route_24" depart="119" />
<vehicle id="Auto_371" type="MotorCycle" route="route_20" depart="120" />
<vehicle id="Bus_372" type="Auto" route="route_22" depart="121" />
<vehicle id="Bus_373" type="MotorCycle" route="route_22" depart="121" />