<routes>
<vType id="Bus" accel="0.6" decel="3.5" sigma="0.5" length="10.1" minGap="1.0" maxSpeed="16.67" carFollowModel="Wiedemann" guiShape="bus" width="2.45" latAlignment="left" laneChangeModel="SL2015" lcStrategic="0.5" lcCooperative="0.0"/>
<vType id="Auto" accel="0.7" decel="4.5" sigma="0.5" length="2.6" minGap="0.3" maxSpeed="16" carFollowModel="Wiedemann" guiShape="passenger/sedan" width="1.25" latAlignment="left" laneChangeModel="SL2015" lcStrategic="0.5" lcCooperative="0.0" />
<vType id="MotorCycle" accel="0.9" decel="3.5" sigma="0.5" length="1.85" minGap="0.15"  carFollowModel="Wiedemann" maxSpeed="17" guiShape="motorcycle" width="0.7" latAlignment="left" laneChangeModel="SL2015" lcStrategic="0.5" lcCooperative="0.0"/>
<vType id="Car" accel="0.8" decel="4.5" sigma="0.5" length="3.6" minGap="0.5" maxSpeed="40" carFollowModel="Wiedemann" guiShape="passenger" width="1.5" latAlignment="left" laneChangeModel="SL2015" lcStrategic="0.5" lcCooperative="0.0"/>
<vType id="emergency" accel="2.8" decel="5.5" sigma="0.5" length="3.6" minGap="0.5" maxSpeed="120.6" carFollowModel="Wiedemann" guiShape="emergency" width="1.5" latAlignment="left" laneChangeModel="SL2015" lcStrategic="0.5" lcCooperative="0.0" vClass="emergency" speedFactor="1.9" jmDriveAfterRedTime="300" jmDriveAfterRedSpeed="5.56">
<param key="has.bluelight.device" value="true"/>
<param key="has.fcd.device" value="true"/> 
</vType>
<route id="route_0" edges="1i 52i gneE0 gneE2" />
<route id="route_1" edges="-gneE2 -gneE0 52o 2i 1o" />
        <route id="route_2" edges="4i 3o" />
        <route id="route_3" edges="3i 4o" />
        <route id="route_4" edges="-gneE1 gneE3" /> 
        <route id="route_5" edges="4i 1o" />
        <route id="route_6" edges="4i 2o 52i gneE0 gneE1" />
        <route id="route_7" edges="2i 4o" />
        <route id="route_8" edges="2i 3o" />
        <route id="route_9" edges="-gneE1 gneE3" />
        <route id="route_10" edges="3i 2o 52i gneE0 gneE3" />
        <route id="route_11" edges="3i 1o" />
        <route id="route_12" edges="-gneE1 -gneE0 52o 2i 4o" />
        <route id="route_13" edges="-gneE1 gneE2" />
        <route id="route_14" edges="-gneE2 gneE1" />
        <route id="route_15" edges="-gneE2 gneE3" />
        <route id="route_16" edges="-gneE3 -gneE0 52o 2i 3o" />
        <route id="route_17" edges="-gneE3 gneE2" />
        <route id="route_18" edges="gneE0 gneE3" />
        <route id="route_19" edges="gneE0 gneE1" />
        <route id="route_20" edges="1i 2o 52i gneE0 gneE2 -gneE4 gneE5" />
        <route id="route_21" edges="-gneE5 gneE4 -gneE2 -gneE0 52o 2i 1o" />
        <route id="route_22" edges="-gneE5 gneE4 -gneE2 -gneE0 52o 2i 3o" />
        <route id="route_23" edges="1i 2o 52i gneE0 gneE2 -gneE4 gneE7" />

	<route id="route_24" edges="gneE0"/>
<vehicle id="emergency_0" type="emergency" route="route_7" depart="0" />
<vehicle id="Bus_0" type="Bus" route="route_7" depart="0" />
<vehicle id="Car_0" type="Car" route="route_9" depart="0" />
<vehicle id="Auto_1" type="MotorCycle" route="route_1" depart="1" />
<vehicle id="Car_2" type="MotorCycle" route="route_8" depart="1" />
<vehicle id="MotorCycle_3" type="MotorCycle" route="route_22" depart="1" />
<vehicle id="Car_4" type="MotorCycle" route="route_23" depart="1" />
<vehicle id="Car_5" type="Bus" route="route_8" depart="2" />
<vehicle id="Car_6" type="MotorCycle" route="route_8" depart="2" />
<vehicle id="Auto_7" type="MotorCycle" route="route_23" depart="2" />
<vehicle id="Bus_8" type="MotorCycle" route="route_11" depart="3" />
<vehicle id="Auto_9" type="MotorCycle" route="route_24" depart="3" />
<vehicle id="MotorCycle_10" type="MotorCycle" route="route_21" depart="4" />
<vehicle id="Bus_11" type="MotorCycle" route="route_22" depart="4" />
<vehicle id="Bus_12" type="MotorCycle" route="route_24" depart="4" />
<vehicle id="Bus_13" type="MotorCycle" route="route_13" depart="5" />
<vehicle id="MotorCycle_14" type="MotorCycle" route="route_19" depart="5" />
<vehicle id="MotorCycle_15" type="MotorCycle" route="route_21" depart="5" />
<vehicle id="MotorCycle_16" type="Car" route="route_21" depart="5" />
<vehicle id="Auto_17" type="MotorCycle" route="route_24" depart="5" />
<vehicle id="Car_18" type="MotorCycle" route="route_1" depart="6" />
<vehicle id="MotorCycle_19" type="MotorCycle" route="route_21" depart="6" />
<vehicle id="Bus_20" type="MotorCycle" route="route_23" depart="6" />
<vehicle id="Bus_21" type="Auto" route="route_1" depart="7" />
<vehicle id="Bus_22" type="MotorCycle" route="route_1" depart="7" />
<vehicle id="MotorCycle_23" type="MotorCycle" route="route_2" depart="7" />
<vehicle id="MotorCycle_24" type="MotorCycle" route="route_21" depart="7" />
<vehicle id="MotorCycle_25" type="MotorCycle" route="route_22" depart="7" />
<vehicle id="Bus_26" type="Auto" route="route_23" depart="8" />
<vehicle id="Bus_27" type="MotorCycle" route="route_23" depart="8" />
<vehicle id="Car_28" type="MotorCycle" route="route_23" depart="9" />
<vehicle id="Car_29" type="Car" route="route_23" depart="9" />
<vehicle id="MotorCycle_30" type="MotorCycle" route="route_24" depart="9" />
<vehicle id="MotorCycle_31" type="MotorCycle" route="route_11" depart="10" />
<vehicle id="Car_32" type="MotorCycle" route="route_22" depart="11" />
<vehicle id="Car_33" type="Auto" route="route_24" depart="11" />
<vehicle id="Car_34" type="MotorCycle" route="route_24" depart="11" />
<vehicle id="MotorCycle_35" type="Car" route="route_20" depart="12" />
<vehicle id="Auto_36" type="MotorCycle" route="route_21" depart="12" />
<vehicle id="Auto_37" type="MotorCycle" route="route_7" depart="13" />
<vehicle id="MotorCycle_38" type="Car" route="route_24" depart="13" />
<vehicle id="Bus_39" type="MotorCycle" route="route_9" depart="14" />
<vehicle id="Bus_40" type="MotorCycle" route="route_22" depart="14" />
<vehicle id="MotorCycle_41" type="MotorCycle" route="route_18" depart="15" />
<vehicle id="Car_42" type="MotorCycle" route="route_21" depart="15" />
<vehicle id="Car_43" type="Car" route="route_21" depart="15" />
<vehicle id="MotorCycle_44" type="MotorCycle" route="route_22" depart="15" />
<vehicle id="Bus_45" type="MotorCycle" route="route_23" depart="15" />
<vehicle id="Auto_46" type="MotorCycle" route="route_24" depart="15" />
<vehicle id="Car_47" type="MotorCycle" route="route_2" depart="16" />
<vehicle id="Car_48" type="Car" route="route_2" depart="16" />
<vehicle id="Car_49" type="MotorCycle" route="route_6" depart="16" />
<vehicle id="MotorCycle_50" type="Car" route="route_19" depart="16" />
<vehicle id="MotorCycle_51" type="MotorCycle" route="route_24" depart="16" />
<vehicle id="MotorCycle_52" type="Car" route="route_24" depart="16" />
<vehicle id="Car_53" type="MotorCycle" route="route_10" depart="17" />
<vehicle id="Auto_54" type="MotorCycle" route="route_11" depart="17" />
<vehicle id="Bus_55" type="MotorCycle" route="route_20" depart="17" />
<vehicle id="Bus_56" type="Car" route="route_20" depart="17" />
<vehicle id="Bus_57" type="MotorCycle" route="route_21" depart="17" />
<vehicle id="MotorCycle_58" type="MotorCycle" route="route_22" depart="17" />
<vehicle id="Car_59" type="MotorCycle" route="route_23" depart="17" />
<vehicle id="Bus_60" type="MotorCycle" route="route_22" depart="18" />
<vehicle id="Car_61" type="MotorCycle" route="route_23" depart="19" />
<vehicle id="Bus_62" type="MotorCycle" route="route_1" depart="20" />
<vehicle id="MotorCycle_63" type="MotorCycle" route="route_12" depart="20" />
<vehicle id="MotorCycle_64" type="Car" route="route_12" depart="20" />
<vehicle id="Bus_65" type="MotorCycle" route="route_20" depart="20" />
<vehicle id="Auto_66" type="MotorCycle" route="route_23" depart="20" />
<vehicle id="Bus_67" type="MotorCycle" route="route_9" depart="21" />
<vehicle id="Bus_68" type="MotorCycle" route="route_19" depart="21" />
<vehicle id="MotorCycle_69" type="MotorCycle" route="route_21" depart="21" />
<vehicle id="MotorCycle_70" type="MotorCycle" route="route_22" depart="22" />
<vehicle id="Auto_71" type="MotorCycle" route="route_23" depart="22" />
<vehicle id="Auto_72" type="MotorCycle" route="route_24" depart="22" />
<vehicle id="Car_73" type="MotorCycle" route="route_22" depart="23" />
<vehicle id="Bus_74" type="MotorCycle" route="route_11" depart="24" />
<vehicle id="MotorCycle_75" type="MotorCycle" route="route_19" depart="24" />
<vehicle id="MotorCycle_76" type="MotorCycle" route="route_21" depart="24" />
<vehicle id="Auto_77" type="MotorCycle" route="route_22" depart="24" />
<vehicle id="MotorCycle_78" type="MotorCycle" route="route_2" depart="25" />
<vehicle id="MotorCycle_79" type="MotorCycle" route="route_11" depart="25" />
<vehicle id="MotorCycle_80" type="Car" route="route_11" depart="25" />
<vehicle id="MotorCycle_81" type="MotorCycle" route="route_3" depart="26" />
<vehicle id="Auto_82" type="Car" route="route_21" depart="26" />
<vehicle id="Car_83" type="MotorCycle" route="route_21" depart="27" />
<vehicle id="Auto_84" type="MotorCycle" route="route_22" depart="27" />
<vehicle id="Bus_85" type="MotorCycle" route="route_20" depart="28" />
<vehicle id="Car_86" type="MotorCycle" route="route_13" depart="29" />
<vehicle id="Bus_87" type="MotorCycle" route="route_19" depart="29" />
<vehicle id="Car_88" type="MotorCycle" route="route_20" depart="29" />
<vehicle id="Car_89" type="Auto" route="route_22" depart="29" />
<vehicle id="Car_90" type="MotorCycle" route="route_22" depart="29" />
<vehicle id="Auto_91" type="MotorCycle" route="route_5" depart="31" />
<vehicle id="Car_92" type="MotorCycle" route="route_22" depart="31" />
<vehicle id="Car_93" type="MotorCycle" route="route_23" depart="31" />
<vehicle id="Car_94" type="MotorCycle" route="route_12" depart="32" />
<vehicle id="Car_95" type="Car" route="route_12" depart="32" />
<vehicle id="MotorCycle_96" type="MotorCycle" route="route_19" depart="32" />
<vehicle id="Bus_97" type="MotorCycle" route="route_20" depart="32" />
<vehicle id="Auto_98" type="MotorCycle" route="route_22" depart="32" />
<vehicle id="Car_99" type="MotorCycle" route="route_2" depart="33" />
<vehicle id="Bus_100" type="MotorCycle" route="route_7" depart="33" />
<vehicle id="Auto_101" type="MotorCycle" route="route_17" depart="33" />
<vehicle id="Auto_102" type="MotorCycle" route="route_21" depart="33" />
<vehicle id="Auto_103" type="Car" route="route_21" depart="33" />
<vehicle id="MotorCycle_104" type="MotorCycle" route="route_22" depart="33" />
<vehicle id="MotorCycle_105" type="MotorCycle" route="route_24" depart="33" />
<vehicle id="MotorCycle_106" type="Car" route="route_24" depart="33" />
<vehicle id="Bus_107" type="MotorCycle" route="route_20" depart="34" />
<vehicle id="Car_108" type="MotorCycle" route="route_22" depart="34" />
<vehicle id="MotorCycle_109" type="Auto" route="route_20" depart="35" />
<vehicle id="MotorCycle_110" type="MotorCycle" route="route_20" depart="35" />
<vehicle id="Auto_111" type="MotorCycle" route="route_21" depart="35" />
<vehicle id="Auto_112" type="MotorCycle" route="route_23" depart="35" />
<vehicle id="Bus_113" type="MotorCycle" route="route_22" depart="36" />
<vehicle id="Bus_114" type="MotorCycle" route="route_8" depart="37" />
<vehicle id="Bus_115" type="MotorCycle" route="route_20" depart="37" />
<vehicle id="MotorCycle_116" type="MotorCycle" route="route_21" depart="37" />
<vehicle id="Bus_117" type="MotorCycle" route="route_22" depart="37" />
<vehicle id="Bus_118" type="Bus" route="route_23" depart="37" />
<vehicle id="Bus_119" type="MotorCycle" route="route_24" depart="37" />
<vehicle id="Bus_120" type="Car" route="route_24" depart="37" />
<vehicle id="Car_121" type="MotorCycle" route="route_14" depart="38" />
<vehicle id="Bus_122" type="Car" route="route_20" depart="38" />
<vehicle id="Car_123" type="Car" route="route_22" depart="38" />
<vehicle id="Car_124" type="MotorCycle" route="route_23" depart="38" />
<vehicle id="MotorCycle_125" type="MotorCycle" route="route_24" depart="38" />
<vehicle id="MotorCycle_126" type="MotorCycle" route="route_19" depart="39" />
<vehicle id="MotorCycle_127" type="Car" route="route_19" depart="39" />
<vehicle id="Car_128" type="MotorCycle" route="route_21" depart="39" />
<vehicle id="MotorCycle_129" type="MotorCycle" route="route_23" depart="39" />
<vehicle id="Bus_130" type="MotorCycle" route="route_24" depart="39" />
<vehicle id="Car_131" type="MotorCycle" route="route_21" depart="40" />
<vehicle id="Auto_132" type="MotorCycle" route="route_22" depart="40" />
<vehicle id="Auto_133" type="MotorCycle" route="route_7" depart="41" />
<vehicle id="Auto_134" type="Car" route="route_7" depart="41" />
<vehicle id="Car_135" type="MotorCycle" route="route_19" depart="41" />
<vehicle id="Bus_136" type="MotorCycle" route="route_21" depart="41" />
<vehicle id="Car_137" type="MotorCycle" route="route_23" depart="41" />
<vehicle id="Bus_138" type="Auto" route="route_20" depart="42" />
<vehicle id="Bus_139" type="Car" route="route_20" depart="42" />
<vehicle id="Auto_140" type="Auto" route="route_21" depart="42" />
<vehicle id="Bus_141" type="MotorCycle" route="route_22" depart="42" />
<vehicle id="MotorCycle_142" type="MotorCycle" route="route_23" depart="42" />
<vehicle id="Bus_143" type="MotorCycle" route="route_23" depart="43" />
<vehicle id="Auto_144" type="Car" route="route_2" depart="44" />
<vehicle id="Auto_145" type="MotorCycle" route="route_22" depart="44" />
<vehicle id="Auto_146" type="Auto" route="route_23" depart="44" />
<vehicle id="Auto_147" type="MotorCycle" route="route_23" depart="44" />
<vehicle id="Auto_148" type="Car" route="route_23" depart="44" />
<vehicle id="Car_149" type="MotorCycle" route="route_24" depart="44" />
<vehicle id="Bus_150" type="MotorCycle" route="route_8" depart="45" />
<vehicle id="Bus_151" type="MotorCycle" route="route_22" depart="45" />
<vehicle id="Auto_152" type="Car" route="route_23" depart="45" />
<vehicle id="Auto_153" type="MotorCycle" route="route_21" depart="46" />
<vehicle id="Auto_154" type="MotorCycle" route="route_22" depart="46" />
<vehicle id="Auto_155" type="Car" route="route_22" depart="46" />
<vehicle id="Car_156" type="MotorCycle" route="route_24" depart="46" />
<vehicle id="Bus_157" type="MotorCycle" route="route_21" depart="47" />
<vehicle id="MotorCycle_158" type="MotorCycle" route="route_22" depart="47" />
<vehicle id="Bus_159" type="MotorCycle" route="route_24" depart="47" />
<vehicle id="MotorCycle_160" type="MotorCycle" route="route_8" depart="48" />
<vehicle id="MotorCycle_161" type="Car" route="route_8" depart="48" />
<vehicle id="Bus_162" type="MotorCycle" route="route_19" depart="49" />
<vehicle id="Auto_163" type="MotorCycle" route="route_21" depart="49" />
<vehicle id="Auto_164" type="MotorCycle" route="route_2" depart="50" />
<vehicle id="MotorCycle_165" type="MotorCycle" route="route_22" depart="50" />
<vehicle id="Auto_166" type="MotorCycle" route="route_21" depart="51" />
<vehicle id="Bus_167" type="Auto" route="route_22" depart="51" />
<vehicle id="Bus_168" type="MotorCycle" route="route_22" depart="51" />
<vehicle id="Bus_169" type="MotorCycle" route="route_3" depart="52" />
<vehicle id="MotorCycle_170" type="MotorCycle" route="route_19" depart="52" />
<vehicle id="Car_171" type="MotorCycle" route="route_21" depart="53" />
<vehicle id="Car_172" type="Auto" route="route_23" depart="53" />
<vehicle id="Car_173" type="MotorCycle" route="route_23" depart="53" />
<vehicle id="MotorCycle_174" type="MotorCycle" route="route_22" depart="54" />
<vehicle id="Auto_175" type="MotorCycle" route="route_1" depart="55" />
<vehicle id="Bus_176" type="MotorCycle" route="route_3" depart="56" />
<vehicle id="MotorCycle_177" type="MotorCycle" route="route_20" depart="56" />
<vehicle id="Auto_178" type="MotorCycle" route="route_22" depart="57" />
<vehicle id="Car_179" type="Car" route="route_24" depart="57" />
<vehicle id="Auto_180" type="MotorCycle" route="route_4" depart="58" />
<vehicle id="Auto_181" type="MotorCycle" route="route_21" depart="58" />
<vehicle id="Car_182" type="MotorCycle" route="route_22" depart="58" />
<vehicle id="Auto_183" type="Auto" route="route_1" depart="59" />
<vehicle id="Auto_184" type="MotorCycle" route="route_21" depart="59" />
<vehicle id="Auto_185" type="Car" route="route_21" depart="59" />
<vehicle id="MotorCycle_186" type="MotorCycle" route="route_23" depart="59" />
<vehicle id="MotorCycle_187" type="Car" route="route_23" depart="59" />
<vehicle id="Car_188" type="MotorCycle" route="route_21" depart="60" />
<vehicle id="Auto_189" type="MotorCycle" route="route_22" depart="60" />
<vehicle id="Auto_190" type="Car" route="route_22" depart="60" />
<vehicle id="Bus_191" type="MotorCycle" route="route_23" depart="60" />
<vehicle id="Auto_192" type="MotorCycle" route="route_24" depart="60" />
<vehicle id="Car_193" type="MotorCycle" route="route_2" depart="61" />
<vehicle id="Auto_194" type="MotorCycle" route="route_21" depart="61" />
<vehicle id="Auto_195" type="MotorCycle" route="route_23" depart="61" />
<vehicle id="Bus_196" type="MotorCycle" route="route_3" depart="62" />
<vehicle id="MotorCycle_197" type="MotorCycle" route="route_7" depart="62" />
<vehicle id="Bus_198" type="MotorCycle" route="route_15" depart="62" />
<vehicle id="Bus_199" type="Auto" route="route_19" depart="62" />
<vehicle id="Bus_200" type="MotorCycle" route="route_19" depart="62" />
<vehicle id="Bus_201" type="Car" route="route_19" depart="62" />
<vehicle id="Car_202" type="MotorCycle" route="route_22" depart="62" />
<vehicle id="Car_203" type="MotorCycle" route="route_23" depart="62" />
<vehicle id="Car_204" type="Car" route="route_23" depart="62" />
<vehicle id="Bus_205" type="MotorCycle" route="route_20" depart="63" />
<vehicle id="Car_206" type="MotorCycle" route="route_20" depart="64" />
<vehicle id="Bus_207" type="MotorCycle" route="route_21" depart="64" />
<vehicle id="MotorCycle_208" type="MotorCycle" route="route_23" depart="64" />
<vehicle id="MotorCycle_209" type="MotorCycle" route="route_18" depart="65" />
<vehicle id="MotorCycle_210" type="Car" route="route_18" depart="65" />
<vehicle id="MotorCycle_211" type="MotorCycle" route="route_23" depart="65" />
<vehicle id="Car_212" type="Bus" route="route_2" depart="66" />
<vehicle id="Bus_213" type="MotorCycle" route="route_15" depart="66" />
<vehicle id="Bus_214" type="Car" route="route_15" depart="66" />
<vehicle id="Auto_215" type="MotorCycle" route="route_5" depart="67" />
<vehicle id="Auto_216" type="Car" route="route_5" depart="67" />
<vehicle id="Bus_217" type="MotorCycle" route="route_19" depart="67" />
<vehicle id="Car_218" type="Car" route="route_20" depart="67" />
<vehicle id="Car_219" type="MotorCycle" route="route_22" depart="67" />
<vehicle id="MotorCycle_220" type="MotorCycle" route="route_19" depart="68" />
<vehicle id="Auto_221" type="MotorCycle" route="route_21" depart="68" />
<vehicle id="Auto_222" type="Car" route="route_21" depart="68" />
<vehicle id="Auto_223" type="Bus" route="route_22" depart="68" />
<vehicle id="Auto_224" type="MotorCycle" route="route_22" depart="68" />
<vehicle id="MotorCycle_225" type="MotorCycle" route="route_5" depart="69" />
<vehicle id="Bus_226" type="Auto" route="route_24" depart="69" />
<vehicle id="Bus_227" type="MotorCycle" route="route_24" depart="69" />
<vehicle id="Bus_228" type="MotorCycle" route="route_22" depart="70" />
<vehicle id="Car_229" type="MotorCycle" route="route_9" depart="71" />
<vehicle id="Bus_230" type="MotorCycle" route="route_21" depart="71" />
<vehicle id="Auto_231" type="MotorCycle" route="route_22" depart="71" />
<vehicle id="Auto_232" type="Car" route="route_22" depart="71" />
<vehicle id="Car_233" type="MotorCycle" route="route_8" depart="72" />
<vehicle id="Car_234" type="MotorCycle" route="route_19" depart="72" />
<vehicle id="MotorCycle_235" type="Bus" route="route_24" depart="73" />
<vehicle id="MotorCycle_236" type="MotorCycle" route="route_24" depart="73" />
<vehicle id="Auto_237" type="MotorCycle" route="route_2" depart="75" />
<vehicle id="Auto_238" type="Car" route="route_11" depart="75" />
<vehicle id="Car_239" type="MotorCycle" route="route_22" depart="75" />
<vehicle id="Bus_240" type="MotorCycle" route="route_21" depart="76" />
<vehicle id="MotorCycle_241" type="Bus" route="route_12" depart="77" />
<vehicle id="MotorCycle_242" type="Auto" route="route_22" depart="77" />
<vehicle id="MotorCycle_243" type="MotorCycle" route="route_22" depart="77" />
<vehicle id="MotorCycle_244" type="MotorCycle" route="route_2" depart="78" />
<vehicle id="Auto_245" type="MotorCycle" route="route_23" depart="78" />
<vehicle id="Auto_246" type="Car" route="route_23" depart="78" />
<vehicle id="Bus_247" type="MotorCycle" route="route_1" depart="79" />
<vehicle id="Bus_248" type="MotorCycle" route="route_19" depart="79" />
<vehicle id="Auto_249" type="Auto" route="route_20" depart="79" />
<vehicle id="Auto_250" type="MotorCycle" route="route_20" depart="79" />
<vehicle id="Car_251" type="MotorCycle" route="route_21" depart="80" />
<vehicle id="Bus_252" type="MotorCycle" route="route_23" depart="80" />
<vehicle id="MotorCycle_253" type="Auto" route="route_22" depart="81" />
<vehicle id="Car_254" type="MotorCycle" route="route_22" depart="82" />
<vehicle id="MotorCycle_255" type="MotorCycle" route="route_24" depart="82" />
<vehicle id="Bus_256" type="MotorCycle" route="route_4" depart="83" />
<vehicle id="Car_257" type="MotorCycle" route="route_11" depart="83" />
<vehicle id="Bus_258" type="MotorCycle" route="route_23" depart="84" />
<vehicle id="MotorCycle_259" type="MotorCycle" route="route_12" depart="85" />
<vehicle id="MotorCycle_260" type="Car" route="route_12" depart="85" />
<vehicle id="Car_261" type="MotorCycle" route="route_13" depart="85" />
<vehicle id="MotorCycle_262" type="MotorCycle" route="route_2" depart="86" />
<vehicle id="Car_263" type="Bus" route="route_4" depart="86" />
<vehicle id="Car_264" type="MotorCycle" route="route_4" depart="86" />
<vehicle id="Car_265" type="MotorCycle" route="route_21" depart="86" />
<vehicle id="Bus_266" type="MotorCycle" route="route_23" depart="86" />
<vehicle id="MotorCycle_267" type="Auto" route="route_21" depart="87" />
<vehicle id="MotorCycle_268" type="MotorCycle" route="route_21" depart="87" />
<vehicle id="Bus_269" type="MotorCycle" route="route_22" depart="87" />
<vehicle id="Auto_270" type="MotorCycle" route="route_24" depart="87" />
<vehicle id="Auto_271" type="Car" route="route_24" depart="87" />
<vehicle id="Auto_272" type="MotorCycle" route="route_5" depart="88" />
<vehicle id="Car_273" type="Car" route="route_12" depart="88" />
<vehicle id="Car_274" type="MotorCycle" route="route_20" depart="88" />
<vehicle id="Car_275" type="Car" route="route_20" depart="88" />
<vehicle id="MotorCycle_276" type="MotorCycle" route="route_21" depart="88" />
<vehicle id="Bus_277" type="MotorCycle" route="route_24" depart="88" />
<vehicle id="MotorCycle_278" type="MotorCycle" route="route_19" depart="89" />
<vehicle id="Auto_279" type="MotorCycle" route="route_21" depart="89" />
<vehicle id="Auto_280" type="MotorCycle" route="route_22" depart="89" />
<vehicle id="Car_281" type="MotorCycle" route="route_21" depart="90" />
<vehicle id="Car_282" type="Car" route="route_21" depart="90" />
<vehicle id="Bus_283" type="MotorCycle" route="route_5" depart="91" />
<vehicle id="Bus_284" type="MotorCycle" route="route_13" depart="92" />
<vehicle id="Auto_285" type="MotorCycle" route="route_19" depart="92" />
<vehicle id="Car_286" type="MotorCycle" route="route_21" depart="93" />
<vehicle id="Bus_287" type="MotorCycle" route="route_22" depart="93" />
<vehicle id="Bus_288" type="MotorCycle" route="route_24" depart="93" />
<vehicle id="Bus_289" type="MotorCycle" route="route_21" depart="94" />
<vehicle id="Car_290" type="MotorCycle" route="route_12" depart="95" />
<vehicle id="Car_291" type="Car" route="route_12" depart="95" />
<vehicle id="MotorCycle_292" type="MotorCycle" route="route_22" depart="95" />
<vehicle id="Auto_293" type="Auto" route="route_24" depart="95" />
<vehicle id="Auto_294" type="MotorCycle" route="route_24" depart="95" />
<vehicle id="Auto_295" type="MotorCycle" route="route_3" depart="96" />
<vehicle id="Bus_296" type="MotorCycle" route="route_4" depart="96" />
<vehicle id="MotorCycle_297" type="MotorCycle" route="route_10" depart="96" />
<vehicle id="Bus_298" type="MotorCycle" route="route_19" depart="96" />
<vehicle id="Bus_299" type="MotorCycle" route="route_22" depart="96" />
<vehicle id="MotorCycle_300" type="MotorCycle" route="route_23" depart="96" />
<vehicle id="MotorCycle_301" type="MotorCycle" route="route_3" depart="97" />
<vehicle id="MotorCycle_302" type="MotorCycle" route="route_4" depart="97" />
<vehicle id="Bus_303" type="MotorCycle" route="route_6" depart="97" />
<vehicle id="Bus_304" type="Car" route="route_6" depart="97" />
<vehicle id="Car_305" type="MotorCycle" route="route_21" depart="97" />
<vehicle id="Car_306" type="MotorCycle" route="route_22" depart="97" />
<vehicle id="Car_307" type="MotorCycle" route="route_16" depart="98" />
<vehicle id="Auto_308" type="MotorCycle" route="route_21" depart="98" />
<vehicle id="Bus_309" type="MotorCycle" route="route_20" depart="99" />
<vehicle id="MotorCycle_310" type="MotorCycle" route="route_5" depart="100" />
<vehicle id="MotorCycle_311" type="MotorCycle" route="route_19" depart="100" />
<vehicle id="Car_312" type="MotorCycle" route="route_20" depart="100" />
<vehicle id="Auto_313" type="Auto" route="route_21" depart="100" />
<vehicle id="Auto_314" type="MotorCycle" route="route_21" depart="100" />
<vehicle id="MotorCycle_315" type="MotorCycle" route="route_23" depart="100" />
<vehicle id="MotorCycle_316" type="MotorCycle" route="route_24" depart="100" />
<vehicle id="Auto_317" type="MotorCycle" route="route_21" depart="101" />
<vehicle id="Car_318" type="MotorCycle" route="route_22" depart="101" />
<vehicle id="Car_319" type="MotorCycle" route="route_21" depart="102" />
<vehicle id="Car_320" type="MotorCycle" route="route_24" depart="102" />
<vehicle id="Car_321" type="MotorCycle" route="route_16" depart="103" />
<vehicle id="Car_322" type="Car" route="route_16" depart="103" />
<vehicle id="MotorCycle_323" type="MotorCycle" route="route_19" depart="103" />
<vehicle id="Auto_324" type="MotorCycle" route="route_21" depart="103" />
<vehicle id="Car_325" type="MotorCycle" route="route_5" depart="104" />
<vehicle id="Auto_326" type="MotorCycle" route="route_13" depart="104" />
<vehicle id="Auto_327" type="MotorCycle" route="route_22" depart="105" />
<vehicle id="Bus_328" type="MotorCycle" route="route_24" depart="105" />
<vehicle id="MotorCycle_329" type="MotorCycle" route="route_19" depart="106" />
<vehicle id="MotorCycle_330" type="Car" route="route_19" depart="106" />
<vehicle id="MotorCycle_331" type="MotorCycle" route="route_22" depart="107" />
<vehicle id="Car_332" type="MotorCycle" route="route_10" depart="108" />
<vehicle id="Car_333" type="MotorCycle" route="route_23" depart="108" />
<vehicle id="Car_334" type="MotorCycle" route="route_12" depart="109" />
<vehicle id="Auto_335" type="MotorCycle" route="route_21" depart="109" />
<vehicle id="Auto_336" type="Auto" route="route_22" depart="109" />
<vehicle id="Auto_337" type="MotorCycle" route="route_22" depart="109" />
<vehicle id="MotorCycle_338" type="Bus" route="route_19" depart="110" />
<vehicle id="MotorCycle_339" type="MotorCycle" route="route_19" depart="110" />
<vehicle id="MotorCycle_340" type="MotorCycle" route="route_21" depart="110" />
<vehicle id="Car_341" type="MotorCycle" route="route_22" depart="110" />
<vehicle id="Bus_342" type="MotorCycle" route="route_20" depart="111" />
<vehicle id="Auto_343" type="MotorCycle" route="route_21" depart="112" />
<vehicle id="MotorCycle_344" type="Bus" route="route_23" depart="112" />
<vehicle id="Bus_345" type="Auto" route="route_20" depart="113" />
<vehicle id="MotorCycle_346" type="MotorCycle" route="route_22" depart="113" />
<vehicle id="Bus_347" type="MotorCycle" route="route_23" depart="113" />
<vehicle id="Auto_348" type="MotorCycle" route="route_22" depart="114" />
<vehicle id="Bus_349" type="MotorCycle" route="route_3" depart="115" />
<vehicle id="Car_350" type="MotorCycle" route="route_23" depart="115" />
<vehicle id="Auto_351" type="MotorCycle" route="route_21" depart="116" />
<vehicle id="Auto_352" type="MotorCycle" route="route_22" depart="116" />
<vehicle id="MotorCycle_353" type="MotorCycle" route="route_23" depart="116" />
<vehicle id="Auto_354" type="MotorCycle" route="route_16" depart="117" />
<vehicle id="MotorCycle_355" type="MotorCycle" route="route_22" depart="117" />
<vehicle id="Car_356" type="MotorCycle" route="route_24" depart="117" />
<vehicle id="Car_357" type="MotorCycle" route="route_19" depart="118" />
<vehicle id="MotorCycle_358" type="MotorCycle" route="route_23" depart="118" />
<vehicle id="Car_359" type="MotorCycle" route="route_5" depart="119" />
<vehicle id="Car_360" type="MotorCycle" route="route_19" depart="119" />
<vehicle id="Car_361" type="Car" route="route_19" depart="119" />
<vehicle id="Bus_362" type="MotorCycle" route="route_23" depart="119" />
<vehicle id="Bus_363" type="MotorCycle" route="route_20" depart="120" />
<vehicle id="MotorCycle_364" type="MotorCycle" route="route_21" depart="120" />
<vehicle id="MotorCycle_365" type="Car" route="route_21" depart="120" />
<vehicle id="Bus_366" type="MotorCycle" route="route_22" depart="120" />
<vehicle id="Bus_367" type="MotorCycle" route="route_19" depart="121" />
<vehicle id="Car_368" type="MotorCycle" route="route_22" depart="121" />
<vehicle id="Car_369" type="Car" route="route_22" depart="121" />
<vehicle id="Car_370" type="MotorCycle" route="route_23" depart="121" />
<vehicle id="MotorCycle_371" type="Auto" route="route_1" depart="122" />
<vehicle id="MotorCycle_372" type="MotorCycle" route="route_1" depart="122" />
<vehicle id="MotorCycle_373" type="Car" route="route_20" depart="122" />
<vehicle id="Car_374" type="MotorCycle" route="route_7" depart="123" />