<routes>
<vType id="Bus" accel="0.6" decel="3.5" sigma="0.5" length="10.1" minGap="1.0" maxSpeed="16.67" carFollowModel="Wiedemann" guiShape="bus" width="2.45" latAlignment="left" laneChangeModel="SL2015" lcStrategic="0.5" lcCooperative="0.0"/>
<vType id="Auto" accel="0.7" decel="4.5" sigma="0.5" length="2.6" minGap="0.3" maxSpeed="16" carFollowModel="Wiedemann" guiShape="passenger/sedan" width="1.25" latAlignment="left" laneChangeModel="SL2015" lcStrategic="0.5" lcCooperative="0.0" />
<vType id="MotorCycle" accel="0.9" decel="3.5" sigma="0.5" length="1.85" minGap="0.15"  carFollowModel="Wiedemann" maxSpeed="17" guiShape="motorcycle" width="0.7" latAlignment="left" laneChangeModel="SL2015" lcStrategic="0.5" lcCooperative="0.0"/>
<vType id="Car" accel="0.8" decel="4.5" sigma="0.5" length="3.6" minGap="0.5" maxSpeed="40" carFollowModel="Wiedemann" guiShape="passenger" width="1.5" latAlignment="left" laneChangeModel="SL2015" lcStrategic="0.5" lcCooperative="0.0"/>
<vType id="emergency" accel="2.8" decel="5.5" sigma="0.5" length="3.6" minGap="0.5" maxSpeed="120.6" carFollowModel="Wiedemann" guiShape="emergency" width="1.5" latAlignment="left" laneChangeModel="SL2015" lcStrategic="0.5" lcCooperative="0.0" vClass="emergency" speedFactor="1.9" jmDriveAfterRedTime="300" jmDriveAfterRedSpeed="5.56">
<param key="has.bluelight.device" value="true"/>
<param key="has.fcd.device" value="true"/> 
</vType>
<route id="route_0" edges="1i 52i gneE0 gneE2" />
<route id="route_1" edges="-gneE2 -gneE0 52o 2i 1o" />
        <route id="route_2" edges="4i 3o" />
        <route id="route_3" edges="3i 4o" />
        <route id="route_4" edges="-gneE1 gneE3" /> 
        <route id="route_5" edges="4i 1o" />
        <route id="route_6" edges="4i 2o 52i gneE0 gneE1" />
        <route id="route_7" edges="2i 4o" />
        <route id="route_8" edges="2i 3o" />
        <route id="route_9" edges="-gneE1 gneE3" />
        <route id="route_10" edges="3i 2o 52i gneE0 gneE3" />
        <route id="route_11" edges="3i 1o" />
        <route id="route_12" edges="-gneE1 -gneE0 52o 2i 4o" />
        <route id="route_13" edges="-gneE1 gneE2" />
        <route id="route_14" edges="-gneE2 gneE1" />
        <route id="route_15" edges="-gneE2 gneE3" />
        <route id="route_16" edges="-gneE3 -gneE0 52o 2i 3o" />
        <route id="route_17" edges="-gneE3 gneE2" />
        <route id="route_18" edges="gneE0 gneE3" />
        <route id="route_19" edges="gneE0 gneE1" />
        <route id="route_20" edges="1i 2o 52i gneE0 gneE2 -gneE4 gneE5" />
        <route id="route_21" edges="-gneE5 gneE4 -gneE2 -gneE0 52o 2i 1o" />
        <route id="route_22" edges="-gneE5 gneE4 -gneE2 -gneE0 52o 2i 3o" />
        <route id="route_23" edges="1i 2o 52i gneE0 gneE2 -gneE4 gneE7" />

	<route id="route_24" edges="gneE0"/>
<vehicle id="emergency_0" type="emergency" route="route_21" depart="0" />
<vehicle id="Bus_0" type="Bus" route="route_21" depart="0" />
<vehicle id="Car_0" type="Car" route="route_10" depart="0" />
<vehicle id="Bus_1" type="MotorCycle" route="route_11" depart="1" />
<vehicle id="Auto_2" type="MotorCycle" route="route_19" depart="1" />
<vehicle id="MotorCycle_3" type="MotorCycle" route="route_22" depart="1" />
<vehicle id="Bus_4" type="MotorCycle" route="route_23" depart="1" />
<vehicle id="Car_5" type="MotorCycle" route="route_24" depart="1" />
<vehicle id="Car_6" type="MotorCycle" route="route_4" depart="2" />
<vehicle id="Car_7" type="Car" route="route_4" depart="2" />
<vehicle id="Auto_8" type="Auto" route="route_21" depart="2" />
<vehicle id="Auto_9" type="MotorCycle" route="route_21" depart="2" />
<vehicle id="MotorCycle_10" type="Bus" route="route_21" depart="3" />
<vehicle id="MotorCycle_11" type="MotorCycle" route="route_21" depart="3" />
<vehicle id="MotorCycle_12" type="MotorCycle" route="route_24" depart="3" />
<vehicle id="Auto_13" type="MotorCycle" route="route_8" depart="4" />
<vehicle id="MotorCycle_14" type="MotorCycle" route="route_21" depart="4" />
<vehicle id="MotorCycle_15" type="Car" route="route_21" depart="4" />
<vehicle id="Auto_16" type="MotorCycle" route="route_22" depart="4" />
<vehicle id="Car_17" type="MotorCycle" route="route_23" depart="4" />
<vehicle id="Car_18" type="MotorCycle" route="route_24" depart="4" />
<vehicle id="Car_19" type="MotorCycle" route="route_19" depart="6" />
<vehicle id="Car_20" type="Car" route="route_19" depart="6" />
<vehicle id="Car_21" type="MotorCycle" route="route_11" depart="7" />
<vehicle id="Auto_22" type="MotorCycle" route="route_24" depart="7" />
<vehicle id="Auto_23" type="Car" route="route_24" depart="7" />
<vehicle id="MotorCycle_24" type="MotorCycle" route="route_1" depart="8" />
<vehicle id="Car_25" type="MotorCycle" route="route_12" depart="8" />
<vehicle id="MotorCycle_26" type="MotorCycle" route="route_22" depart="8" />
<vehicle id="Car_27" type="MotorCycle" route="route_24" depart="9" />
<vehicle id="Car_28" type="Car" route="route_24" depart="9" />
<vehicle id="Bus_29" type="MotorCycle" route="route_22" depart="10" />
<vehicle id="Car_30" type="MotorCycle" route="route_23" depart="10" />
<vehicle id="Bus_31" type="MotorCycle" route="route_24" depart="10" />
<vehicle id="Car_32" type="MotorCycle" route="route_12" depart="12" />
<vehicle id="Car_33" type="Car" route="route_22" depart="12" />
<vehicle id="MotorCycle_34" type="Auto" route="route_24" depart="12" />
<vehicle id="MotorCycle_35" type="MotorCycle" route="route_24" depart="12" />
<vehicle id="Car_36" type="Car" route="route_6" depart="13" />
<vehicle id="Auto_37" type="MotorCycle" route="route_12" depart="13" />
<vehicle id="MotorCycle_38" type="MotorCycle" route="route_20" depart="13" />
<vehicle id="MotorCycle_39" type="MotorCycle" route="route_22" depart="13" />
<vehicle id="MotorCycle_40" type="Car" route="route_23" depart="13" />
<vehicle id="Car_41" type="MotorCycle" route="route_3" depart="14" />
<vehicle id="Car_42" type="MotorCycle" route="route_20" depart="14" />
<vehicle id="Auto_43" type="Bus" route="route_21" depart="14" />
<vehicle id="Bus_44" type="MotorCycle" route="route_7" depart="15" />
<vehicle id="Auto_45" type="MotorCycle" route="route_10" depart="15" />
<vehicle id="Auto_46" type="Car" route="route_10" depart="15" />
<vehicle id="MotorCycle_47" type="MotorCycle" route="route_21" depart="15" />
<vehicle id="Auto_48" type="MotorCycle" route="route_22" depart="15" />
<vehicle id="MotorCycle_49" type="Car" route="route_23" depart="15" />
<vehicle id="Car_50" type="MotorCycle" route="route_4" depart="16" />
<vehicle id="Car_51" type="Car" route="route_4" depart="16" />
<vehicle id="Bus_52" type="MotorCycle" route="route_20" depart="16" />
<vehicle id="MotorCycle_53" type="MotorCycle" route="route_22" depart="16" />
<vehicle id="Auto_54" type="MotorCycle" route="route_23" depart="16" />
<vehicle id="Auto_55" type="Car" route="route_23" depart="16" />
<vehicle id="Car_56" type="MotorCycle" route="route_9" depart="17" />
<vehicle id="Car_57" type="MotorCycle" route="route_24" depart="17" />
<vehicle id="Car_58" type="MotorCycle" route="route_21" depart="18" />
<vehicle id="Car_59" type="MotorCycle" route="route_24" depart="18" />
<vehicle id="Car_60" type="Car" route="route_24" depart="18" />
<vehicle id="Car_61" type="MotorCycle" route="route_20" depart="19" />
<vehicle id="Car_62" type="Car" route="route_20" depart="19" />
<vehicle id="MotorCycle_63" type="MotorCycle" route="route_22" depart="19" />
<vehicle id="Car_64" type="MotorCycle" route="route_24" depart="19" />
<vehicle id="Car_65" type="MotorCycle" route="route_21" depart="20" />
<vehicle id="Bus_66" type="MotorCycle" route="route_24" depart="20" />
<vehicle id="Car_67" type="MotorCycle" route="route_21" depart="21" />
<vehicle id="Car_68" type="Car" route="route_21" depart="21" />
<vehicle id="Car_69" type="Auto" route="route_23" depart="21" />
<vehicle id="MotorCycle_70" type="MotorCycle" route="route_24" depart="21" />
<vehicle id="Bus_71" type="MotorCycle" route="route_20" depart="22" />
<vehicle id="Bus_72" type="Auto" route="route_21" depart="22" />
<vehicle id="Bus_73" type="MotorCycle" route="route_21" depart="22" />
<vehicle id="Bus_74" type="MotorCycle" route="route_24" depart="22" />
<vehicle id="Auto_75" type="Bus" route="route_21" depart="23" />
<vehicle id="Auto_76" type="MotorCycle" route="route_21" depart="23" />
<vehicle id="Bus_77" type="MotorCycle" route="route_20" depart="24" />
<vehicle id="Bus_78" type="MotorCycle" route="route_22" depart="24" />
<vehicle id="Bus_79" type="MotorCycle" route="route_24" depart="24" />
<vehicle id="Bus_80" type="Car" route="route_24" depart="24" />
<vehicle id="Bus_81" type="MotorCycle" route="route_3" depart="25" />
<vehicle id="Bus_82" type="MotorCycle" route="route_7" depart="25" />
<vehicle id="Auto_83" type="MotorCycle" route="route_9" depart="25" />
<vehicle id="Auto_84" type="Car" route="route_9" depart="25" />
<vehicle id="MotorCycle_85" type="MotorCycle" route="route_21" depart="25" />
<vehicle id="Bus_86" type="Car" route="route_22" depart="25" />
<vehicle id="Auto_87" type="MotorCycle" route="route_20" depart="26" />
<vehicle id="Bus_88" type="MotorCycle" route="route_23" depart="26" />
<vehicle id="Car_89" type="MotorCycle" route="route_19" depart="27" />
<vehicle id="Car_90" type="Car" route="route_19" depart="27" />
<vehicle id="MotorCycle_91" type="MotorCycle" route="route_22" depart="27" />
<vehicle id="Auto_92" type="MotorCycle" route="route_23" depart="27" />
<vehicle id="MotorCycle_93" type="MotorCycle" route="route_21" depart="28" />
<vehicle id="Auto_94" type="MotorCycle" route="route_23" depart="29" />
<vehicle id="Bus_95" type="MotorCycle" route="route_19" depart="30" />
<vehicle id="Bus_96" type="Car" route="route_19" depart="30" />
<vehicle id="Car_97" type="Auto" route="route_20" depart="30" />
<vehicle id="Car_98" type="MotorCycle" route="route_20" depart="30" />
<vehicle id="Auto_99" type="Auto" route="route_21" depart="30" />
<vehicle id="Auto_100" type="MotorCycle" route="route_21" depart="30" />
<vehicle id="Car_101" type="MotorCycle" route="route_23" depart="30" />
<vehicle id="Car_102" type="Car" route="route_23" depart="30" />
<vehicle id="Car_103" type="Car" route="route_3" depart="31" />
<vehicle id="Bus_104" type="MotorCycle" route="route_20" depart="31" />
<vehicle id="MotorCycle_105" type="MotorCycle" route="route_24" depart="31" />
<vehicle id="Auto_106" type="MotorCycle" route="route_7" depart="32" />
<vehicle id="Car_107" type="MotorCycle" route="route_11" depart="32" />
<vehicle id="Car_108" type="MotorCycle" route="route_21" depart="32" />
<vehicle id="MotorCycle_109" type="MotorCycle" route="route_22" depart="32" />
<vehicle id="Auto_110" type="MotorCycle" route="route_3" depart="34" />
<vehicle id="Car_111" type="MotorCycle" route="route_11" depart="34" />
<vehicle id="Car_112" type="MotorCycle" route="route_21" depart="34" />
<vehicle id="Car_113" type="MotorCycle" route="route_22" depart="34" />
<vehicle id="Bus_114" type="MotorCycle" route="route_23" depart="34" />
<vehicle id="MotorCycle_115" type="Car" route="route_2" depart="35" />
<vehicle id="Car_116" type="Bus" route="route_18" depart="35" />
<vehicle id="Car_117" type="MotorCycle" route="route_18" depart="35" />
<vehicle id="MotorCycle_118" type="MotorCycle" route="route_22" depart="35" />
<vehicle id="Bus_119" type="MotorCycle" route="route_20" depart="36" />
<vehicle id="Bus_120" type="Car" route="route_20" depart="36" />
<vehicle id="Auto_121" type="MotorCycle" route="route_23" depart="36" />
<vehicle id="Bus_122" type="MotorCycle" route="route_22" depart="37" />
<vehicle id="MotorCycle_123" type="MotorCycle" route="route_23" depart="37" />
<vehicle id="Bus_124" type="MotorCycle" route="route_3" depart="38" />
<vehicle id="Auto_125" type="MotorCycle" route="route_10" depart="38" />
<vehicle id="Auto_126" type="MotorCycle" route="route_16" depart="38" />
<vehicle id="MotorCycle_127" type="MotorCycle" route="route_20" depart="38" />
<vehicle id="MotorCycle_128" type="Car" route="route_21" depart="38" />
<vehicle id="Bus_129" type="MotorCycle" route="route_3" depart="40" />
<vehicle id="Auto_130" type="MotorCycle" route="route_21" depart="40" />
<vehicle id="Car_131" type="Auto" route="route_22" depart="41" />
<vehicle id="Bus_132" type="MotorCycle" route="route_19" depart="42" />
<vehicle id="MotorCycle_133" type="MotorCycle" route="route_21" depart="42" />
<vehicle id="Car_134" type="MotorCycle" route="route_22" depart="42" />
<vehicle id="Car_135" type="MotorCycle" route="route_23" depart="42" />
<vehicle id="Auto_136" type="MotorCycle" route="route_24" depart="42" />
<vehicle id="Auto_137" type="Car" route="route_24" depart="42" />
<vehicle id="Auto_138" type="MotorCycle" route="route_22" depart="43" />
<vehicle id="Bus_139" type="MotorCycle" route="route_3" depart="44" />
<vehicle id="MotorCycle_140" type="MotorCycle" route="route_21" depart="44" />
<vehicle id="Bus_141" type="MotorCycle" route="route_24" depart="44" />
<vehicle id="Auto_142" type="MotorCycle" route="route_20" depart="45" />
<vehicle id="Auto_143" type="MotorCycle" route="route_24" depart="47" />
<vehicle id="Bus_144" type="MotorCycle" route="route_1" depart="48" />
<vehicle id="Bus_145" type="MotorCycle" route="route_9" depart="49" />
<vehicle id="Car_146" type="MotorCycle" route="route_15" depart="49" />
<vehicle id="MotorCycle_147" type="MotorCycle" route="route_17" depart="49" />
<vehicle id="MotorCycle_148" type="MotorCycle" route="route_10" depart="50" />
<vehicle id="Bus_149" type="MotorCycle" route="route_12" depart="51" />
<vehicle id="Bus_150" type="Car" route="route_21" depart="51" />
<vehicle id="Car_151" type="MotorCycle" route="route_24" depart="52" />
<vehicle id="Auto_152" type="Auto" route="route_20" depart="53" />
<vehicle id="Auto_153" type="MotorCycle" route="route_20" depart="53" />
<vehicle id="Auto_154" type="Car" route="route_20" depart="53" />
<vehicle id="Auto_155" type="MotorCycle" route="route_21" depart="53" />
<vehicle id="Auto_156" type="Car" route="route_21" depart="53" />
<vehicle id="MotorCycle_157" type="Auto" route="route_24" depart="53" />
<vehicle id="Car_158" type="MotorCycle" route="route_21" depart="54" />
<vehicle id="MotorCycle_159" type="MotorCycle" route="route_24" depart="54" />
<vehicle id="Auto_160" type="MotorCycle" route="route_7" depart="55" />
<vehicle id="Auto_161" type="Car" route="route_7" depart="55" />
<vehicle id="Bus_162" type="Bus" route="route_11" depart="55" />
<vehicle id="MotorCycle_163" type="Auto" route="route_21" depart="55" />
<vehicle id="MotorCycle_164" type="MotorCycle" route="route_21" depart="55" />
<vehicle id="MotorCycle_165" type="Car" route="route_21" depart="55" />
<vehicle id="Auto_166" type="MotorCycle" route="route_23" depart="55" />
<vehicle id="Auto_167" type="MotorCycle" route="route_5" depart="56" />
<vehicle id="Auto_168" type="MotorCycle" route="route_19" depart="56" />
<vehicle id="Auto_169" type="Car" route="route_19" depart="56" />
<vehicle id="Car_170" type="Car" route="route_22" depart="57" />
<vehicle id="Bus_171" type="MotorCycle" route="route_23" depart="57" />
<vehicle id="Car_172" type="MotorCycle" route="route_24" depart="57" />
<vehicle id="Bus_173" type="MotorCycle" route="route_21" depart="58" />
<vehicle id="Car_174" type="MotorCycle" route="route_23" depart="58" />
<vehicle id="Auto_175" type="MotorCycle" route="route_1" depart="59" />
<vehicle id="Auto_176" type="Car" route="route_1" depart="59" />
<vehicle id="Car_177" type="MotorCycle" route="route_9" depart="59" />
<vehicle id="Car_178" type="MotorCycle" route="route_20" depart="59" />
<vehicle id="Bus_179" type="MotorCycle" route="route_8" depart="62" />
<vehicle id="Bus_180" type="MotorCycle" route="route_15" depart="62" />
<vehicle id="MotorCycle_181" type="Auto" route="route_22" depart="62" />
<vehicle id="MotorCycle_182" type="MotorCycle" route="route_22" depart="62" />
<vehicle id="MotorCycle_183" type="Car" route="route_22" depart="62" />
<vehicle id="Auto_184" type="MotorCycle" route="route_23" depart="62" />
<vehicle id="Car_185" type="MotorCycle" route="route_4" depart="63" />
<vehicle id="Auto_186" type="MotorCycle" route="route_21" depart="63" />
<vehicle id="Auto_187" type="Car" route="route_21" depart="63" />
<vehicle id="Auto_188" type="MotorCycle" route="route_22" depart="63" />
<vehicle id="Bus_189" type="Bus" route="route_23" depart="63" />
<vehicle id="Bus_190" type="MotorCycle" route="route_23" depart="63" />
<vehicle id="Car_191" type="MotorCycle" route="route_24" depart="63" />
<vehicle id="Bus_192" type="MotorCycle" route="route_19" depart="64" />
<vehicle id="Bus_193" type="MotorCycle" route="route_15" depart="65" />
<vehicle id="MotorCycle_194" type="MotorCycle" route="route_20" depart="65" />
<vehicle id="MotorCycle_195" type="Car" route="route_20" depart="65" />
<vehicle id="Auto_196" type="Car" route="route_23" depart="65" />
<vehicle id="Bus_197" type="MotorCycle" route="route_11" depart="66" />
<vehicle id="Auto_198" type="MotorCycle" route="route_22" depart="67" />
<vehicle id="MotorCycle_199" type="MotorCycle" route="route_24" depart="67" />
<vehicle id="MotorCycle_200" type="Car" route="route_24" depart="67" />
<vehicle id="Auto_201" type="MotorCycle" route="route_15" depart="68" />
<vehicle id="Auto_202" type="Auto" route="route_19" depart="68" />
<vehicle id="Auto_203" type="MotorCycle" route="route_19" depart="68" />
<vehicle id="Bus_204" type="Car" route="route_22" depart="68" />
<vehicle id="MotorCycle_205" type="MotorCycle" route="route_21" depart="69" />
<vehicle id="MotorCycle_206" type="MotorCycle" route="route_22" depart="69" />
<vehicle id="Bus_207" type="MotorCycle" route="route_24" depart="70" />
<vehicle id="MotorCycle_208" type="Auto" route="route_22" depart="71" />
<vehicle id="MotorCycle_209" type="MotorCycle" route="route_22" depart="71" />
<vehicle id="Bus_210" type="MotorCycle" route="route_23" depart="71" />
<vehicle id="Car_211" type="MotorCycle" route="route_24" depart="71" />
<vehicle id="Auto_212" type="MotorCycle" route="route_20" depart="72" />
<vehicle id="MotorCycle_213" type="MotorCycle" route="route_21" depart="72" />
<vehicle id="Auto_214" type="MotorCycle" route="route_22" depart="72" />
<vehicle id="Car_215" type="MotorCycle" route="route_20" depart="73" />
<vehicle id="Car_216" type="Car" route="route_20" depart="73" />
<vehicle id="Auto_217" type="MotorCycle" route="route_24" depart="73" />
<vehicle id="Car_218" type="Car" route="route_21" depart="74" />
<vehicle id="Auto_219" type="Auto" route="route_23" depart="74" />
<vehicle id="Auto_220" type="MotorCycle" route="route_23" depart="74" />
<vehicle id="Bus_221" type="Car" route="route_3" depart="75" />
<vehicle id="MotorCycle_222" type="MotorCycle" route="route_12" depart="75" />
<vehicle id="Auto_223" type="MotorCycle" route="route_22" depart="75" />
<vehicle id="Car_224" type="MotorCycle" route="route_1" depart="76" />
<vehicle id="MotorCycle_225" type="MotorCycle" route="route_13" depart="76" />
<vehicle id="MotorCycle_226" type="MotorCycle" route="route_21" depart="76" />
<vehicle id="MotorCycle_227" type="MotorCycle" route="route_22" depart="76" />
<vehicle id="MotorCycle_228" type="Car" route="route_22" depart="76" />
<vehicle id="Bus_229" type="MotorCycle" route="route_23" depart="76" />
<vehicle id="Bus_230" type="Car" route="route_23" depart="76" />
<vehicle id="MotorCycle_231" type="Car" route="route_24" depart="76" />
<vehicle id="Bus_232" type="MotorCycle" route="route_7" depart="77" />
<vehicle id="Bus_233" type="MotorCycle" route="route_8" depart="78" />
<vehicle id="Bus_234" type="Car" route="route_8" depart="78" />
<vehicle id="Bus_235" type="MotorCycle" route="route_21" depart="78" />
<vehicle id="MotorCycle_236" type="MotorCycle" route="route_23" depart="78" />
<vehicle id="Car_237" type="Auto" route="route_4" depart="80" />
<vehicle id="Auto_238" type="MotorCycle" route="route_16" depart="80" />
<vehicle id="Auto_239" type="Car" route="route_16" depart="80" />
<vehicle id="Car_240" type="MotorCycle" route="route_22" depart="80" />
<vehicle id="Auto_241" type="Auto" route="route_24" depart="81" />
<vehicle id="Auto_242" type="MotorCycle" route="route_24" depart="81" />
<vehicle id="Car_243" type="MotorCycle" route="route_21" depart="82" />
<vehicle id="Auto_244" type="MotorCycle" route="route_20" depart="83" />
<vehicle id="MotorCycle_245" type="MotorCycle" route="route_22" depart="83" />
<vehicle id="Auto_246" type="MotorCycle" route="route_2" depart="84" />
<vehicle id="Auto_247" type="Car" route="route_2" depart="84" />
<vehicle id="Auto_248" type="MotorCycle" route="route_22" depart="84" />
<vehicle id="Bus_249" type="Bus" route="route_7" depart="85" />
<vehicle id="Bus_250" type="MotorCycle" route="route_7" depart="85" />
<vehicle id="Car_251" type="MotorCycle" route="route_19" depart="85" />
<vehicle id="Car_252" type="MotorCycle" route="route_21" depart="85" />
<vehicle id="Bus_253" type="MotorCycle" route="route_2" depart="86" />
<vehicle id="Bus_254" type="Car" route="route_2" depart="86" />
<vehicle id="MotorCycle_255" type="MotorCycle" route="route_4" depart="86" />
<vehicle id="Auto_256" type="MotorCycle" route="route_24" depart="86" />
<vehicle id="Auto_257" type="MotorCycle" route="route_24" depart="87" />
<vehicle id="MotorCycle_258" type="Auto" route="route_21" depart="88" />
<vehicle id="MotorCycle_259" type="MotorCycle" route="route_21" depart="88" />
<vehicle id="MotorCycle_260" type="MotorCycle" route="route_23" depart="88" />
<vehicle id="Car_261" type="MotorCycle" route="route_24" depart="88" />
<vehicle id="Auto_262" type="MotorCycle" route="route_21" depart="89" />
<vehicle id="Auto_263" type="MotorCycle" route="route_22" depart="89" />
<vehicle id="Car_264" type="MotorCycle" route="route_5" depart="90" />
<vehicle id="MotorCycle_265" type="MotorCycle" route="route_19" depart="90" />
<vehicle id="MotorCycle_266" type="Auto" route="route_22" depart="90" />
<vehicle id="MotorCycle_267" type="MotorCycle" route="route_22" depart="90" />
<vehicle id="MotorCycle_268" type="MotorCycle" route="route_23" depart="90" />
<vehicle id="Car_269" type="MotorCycle" route="route_24" depart="90" />
<vehicle id="Bus_270" type="MotorCycle" route="route_4" depart="91" />
<vehicle id="Bus_271" type="Car" route="route_4" depart="91" />
<vehicle id="Auto_272" type="MotorCycle" route="route_21" depart="91" />
<vehicle id="Auto_273" type="Auto" route="route_22" depart="91" />
<vehicle id="Auto_274" type="Car" route="route_22" depart="91" />
<vehicle id="Bus_275" type="MotorCycle" route="route_2" depart="92" />
<vehicle id="MotorCycle_276" type="MotorCycle" route="route_21" depart="92" />
<vehicle id="MotorCycle_277" type="Car" route="route_21" depart="92" />
<vehicle id="Auto_278" type="MotorCycle" route="route_3" depart="93" />
<vehicle id="Auto_279" type="Car" route="route_3" depart="93" />
<vehicle id="Car_280" type="Auto" route="route_11" depart="93" />
<vehicle id="Auto_281" type="MotorCycle" route="route_12" depart="93" />
<vehicle id="MotorCycle_282" type="Auto" route="route_19" depart="93" />
<vehicle id="MotorCycle_283" type="MotorCycle" route="route_19" depart="93" />
<vehicle id="MotorCycle_284" type="Car" route="route_19" depart="93" />
<vehicle id="Bus_285" type="MotorCycle" route="route_21" depart="93" />
<vehicle id="Bus_286" type="Car" route="route_21" depart="93" />
<vehicle id="Bus_287" type="MotorCycle" route="route_23" depart="93" />
<vehicle id="Car_288" type="MotorCycle" route="route_24" depart="93" />
<vehicle id="Auto_289" type="MotorCycle" route="route_10" depart="94" />
<vehicle id="Bus_290" type="MotorCycle" route="route_22" depart="94" />
<vehicle id="Bus_291" type="Car" route="route_22" depart="94" />
<vehicle id="Auto_292" type="Auto" route="route_24" depart="94" />
<vehicle id="Auto_293" type="Car" route="route_24" depart="94" />
<vehicle id="Car_294" type="MotorCycle" route="route_7" depart="95" />
<vehicle id="Car_295" type="MotorCycle" route="route_23" depart="95" />
<vehicle id="Auto_296" type="MotorCycle" route="route_24" depart="95" />
<vehicle id="Bus_297" type="MotorCycle" route="route_21" depart="96" />
<vehicle id="Auto_298" type="MotorCycle" route="route_21" depart="97" />
<vehicle id="Auto_299" type="MotorCycle" route="route_22" depart="97" />
<vehicle id="MotorCycle_300" type="MotorCycle" route="route_24" depart="97" />
<vehicle id="MotorCycle_301" type="MotorCycle" route="route_8" depart="98" />
<vehicle id="Bus_302" type="MotorCycle" route="route_22" depart="98" />
<vehicle id="Bus_303" type="Car" route="route_22" depart="98" />
<vehicle id="Car_304" type="MotorCycle" route="route_23" depart="99" />
<vehicle id="Bus_305" type="MotorCycle" route="route_8" depart="100" />
<vehicle id="Car_306" type="MotorCycle" route="route_22" depart="101" />
<vehicle id="Bus_307" type="MotorCycle" route="route_21" depart="102" />
<vehicle id="Bus_308" type="Car" route="route_21" depart="102" />
<vehicle id="Auto_309" type="MotorCycle" route="route_24" depart="102" />
<vehicle id="Auto_310" type="Car" route="route_24" depart="102" />
<vehicle id="Bus_311" type="MotorCycle" route="route_5" depart="103" />
<vehicle id="MotorCycle_312" type="MotorCycle" route="route_24" depart="103" />
<vehicle id="Bus_313" type="MotorCycle" route="route_20" depart="104" />
<vehicle id="Bus_314" type="Car" route="route_20" depart="104" />
<vehicle id="Auto_315" type="MotorCycle" route="route_21" depart="104" />
<vehicle id="Auto_316" type="Auto" route="route_22" depart="104" />
<vehicle id="Auto_317" type="Car" route="route_22" depart="104" />
<vehicle id="Car_318" type="MotorCycle" route="route_24" depart="104" />
<vehicle id="Car_319" type="MotorCycle" route="route_14" depart="105" />
<vehicle id="Auto_320" type="MotorCycle" route="route_21" depart="105" />
<vehicle id="MotorCycle_321" type="MotorCycle" route="route_22" depart="105" />
<vehicle id="Auto_322" type="Auto" route="route_24" depart="105" />
<vehicle id="Auto_323" type="MotorCycle" route="route_24" depart="105" />
<vehicle id="Auto_324" type="Car" route="route_24" depart="105" />
<vehicle id="Car_325" type="MotorCycle" route="route_19" depart="106" />
<vehicle id="Bus_326" type="MotorCycle" route="route_21" depart="106" />
<vehicle id="Bus_327" type="MotorCycle" route="route_22" depart="106" />
<vehicle id="Car_328" type="MotorCycle" route="route_23" depart="107" />
<vehicle id="MotorCycle_329" type="MotorCycle" route="route_16" depart="108" />
<vehicle id="MotorCycle_330" type="Car" route="route_16" depart="108" />
<vehicle id="Car_331" type="Car" route="route_19" depart="108" />
<vehicle id="Auto_332" type="MotorCycle" route="route_20" depart="108" />
<vehicle id="Car_333" type="Auto" route="route_21" depart="108" />
<vehicle id="Auto_334" type="MotorCycle" route="route_22" depart="108" />
<vehicle id="Auto_335" type="Auto" route="route_1" depart="109" />
<vehicle id="Auto_336" type="Car" route="route_1" depart="109" />
<vehicle id="Bus_337" type="MotorCycle" route="route_21" depart="109" />
<vehicle id="Car_338" type="MotorCycle" route="route_23" depart="109" />
<vehicle id="MotorCycle_339" type="Car" route="route_12" depart="110" />
<vehicle id="MotorCycle_340" type="MotorCycle" route="route_21" depart="110" />
<vehicle id="Auto_341" type="MotorCycle" route="route_23" depart="110" />
<vehicle id="Auto_342" type="MotorCycle" route="route_24" depart="110" />
<vehicle id="Bus_343" type="MotorCycle" route="route_19" depart="111" />
<vehicle id="MotorCycle_344" type="MotorCycle" route="route_24" depart="111" />
<vehicle id="MotorCycle_345" type="MotorCycle" route="route_2" depart="112" />
<vehicle id="Auto_346" type="MotorCycle" route="route_17" depart="112" />
<vehicle id="Bus_347" type="MotorCycle" route="route_21" depart="112" />
<vehicle id="Auto_348" type="Auto" route="route_21" depart="113" />
<vehicle id="Auto_349" type="MotorCycle" route="route_21" depart="113" />
<vehicle id="Bus_350" type="MotorCycle" route="route_24" depart="113" />
<vehicle id="Bus_351" type="MotorCycle" route="route_9" depart="114" />
<vehicle id="Bus_352" type="MotorCycle" route="route_17" depart="114" />
<vehicle id="MotorCycle_353" type="MotorCycle" route="route_21" depart="114" />
<vehicle id="Car_354" type="MotorCycle" route="route_22" depart="114" />
<vehicle id="MotorCycle_355" type="MotorCycle" route="route_4" depart="115" />
<vehicle id="Auto_356" type="MotorCycle" route="route_19" depart="115" />
<vehicle id="Auto_357" type="Car" route="route_19" depart="115" />
<vehicle id="Car_358" type="MotorCycle" route="route_3" depart="117" />
<vehicle id="Car_359" type="Car" route="route_3" depart="117" />
<vehicle id="Car_360" type="Auto" route="route_3" depart="118" />
<vehicle id="Auto_361" type="MotorCycle" route="route_22" depart="118" />
<vehicle id="Car_362" type="MotorCycle" route="route_10" depart="119" />
<vehicle id="Auto_363" type="MotorCycle" route="route_21" depart="119" />
<vehicle id="Auto_364" type="Car" route="route_21" depart="119" />
<vehicle id="MotorCycle_365" type="MotorCycle" route="route_22" depart="119" />
<vehicle id="Car_366" type="MotorCycle" route="route_2" depart="122" />
<vehicle id="Auto_367" type="Auto" route="route_13" depart="122" />
<vehicle id="Auto_368" type="MotorCycle" route="route_13" depart="122" />
<vehicle id="Auto_369" type="Car" route="route_13" depart="122" />
<vehicle id="Bus_370" type="MotorCycle" route="route_20" depart="122" />
<vehicle id="Auto_371" type="Car" route="route_24" depart="122" />
<vehicle id="Bus_372" type="MotorCycle" route="route_12" depart="123" />
<vehicle id="Bus_373" type="Car" route="route_12" depart="123" />
<vehicle id="Car_374" type="MotorCycle" route="route_21" depart="123" />
<vehicle id="MotorCycle_375" type="MotorCycle" route="route_22" depart="123" />
<vehicle id="MotorCycle_376" type="MotorCycle" route="route_23" depart="123" />
<vehicle id="MotorCycle_377" type="MotorCycle" route="route_2" depart="124" />