<routes>
<vType id="Bus" accel="0.6" decel="3.5" sigma="0.5" length="10.1" minGap="1.0" maxSpeed="16.67" carFollowModel="Wiedemann" guiShape="bus" width="2.45" latAlignment="left" laneChangeModel="SL2015" lcStrategic="0.5" lcCooperative="0.0"/>
<vType id="Auto" accel="0.7" decel="4.5" sigma="0.5" length="2.6" minGap="0.3" maxSpeed="16" carFollowModel="Wiedemann" guiShape="passenger/sedan" width="1.25" latAlignment="left" laneChangeModel="SL2015" lcStrategic="0.5" lcCooperative="0.0" />
<vType id="MotorCycle" accel="0.9" decel="3.5" sigma="0.5" length="1.85" minGap="0.15"  carFollowModel="Wiedemann" maxSpeed="17" guiShape="motorcycle" width="0.7" latAlignment="left" laneChangeModel="SL2015" lcStrategic="0.5" lcCooperative="0.0"/>
<vType id="Car" accel="0.8" decel="4.5" sigma="0.5" length="3.6" minGap="0.5" maxSpeed="40" carFollowModel="Wiedemann" guiShape="passenger" width="1.5" latAlignment="left" laneChangeModel="SL2015" lcStrategic="0.5" lcCooperative="0.0"/>
<vType id="emergency" accel="2.8" decel="5.5" sigma="0.5" length="3.6" minGap="0.5" maxSpeed="120.6" carFollowModel="Wiedemann" guiShape="emergency" width="1.5" latAlignment="left" laneChangeModel="SL2015" lcStrategic="0.5" lcCooperative="0.0" vClass="emergency" speedFactor="1.9" jmDriveAfterRedTime="300" jmDriveAfterRedSpeed="5.56">
<param key="has.bluelight.device" value="true"/>
<param key="has.fcd.device" value="true"/> 
</vType>
<route id="route_0" edges="1i 52i gneE0 gneE2" />
<route id="route_1" edges="-gneE2 -gneE0 52o 2i 1o" />
        <route id="route_2" edges="4i 3o" />
        <route id="route_3" edges="3i 4o" />
        <route id="route_4" edges="-gneE1 gneE3" /> 
        <route id="route_5" edges="4i 1o" />
        <route id="route_6" edges="4i 2o 52i gneE0 gneE1" />
        <route id="route_7" edges="2i 4o" />
        <route id="route_8" edges="2i 3o" />
        <route id="route_9" edges="-gneE1 gneE3" />
        <route id="route_10" edges="3i 2o 52i gneE0 gneE3" />
        <route id="route_11" edges="3i 1o" />
        <route id="route_12" edges="-gneE1 -gneE0 52o 2i 4o" />
        <route id="route_13" edges="-gneE1 gneE2" />
        <route id="route_14" edges="-gneE2 gneE1" />
        <route id="route_15" edges="-gneE2 gneE3" />
        <route id="route_16" edges="-gneE3 -gneE0 52o 2i 3o" />
        <route id="route_17" edges="-gneE3 gneE2" />
        <route id="route_18" edges="gneE0 gneE3" />
        <route id="route_19" edges="gneE0 gneE1" />
        <route id="route_20" edges="1i 2o 52i gneE0 gneE2 -gneE4 gneE5" />
        <route id="route_21" edges="-gneE5 gneE4 -gneE2 -gneE0 52o 2i 1o" />
        <route id="route_22" edges="-gneE5 gneE4 -gneE2 -gneE0 52o 2i 3o" />
        <route id="route_23" edges="1i 2o 52i gneE0 gneE2 -gneE4 gneE7" />

	<route id="route_24" edges="gneE0"/>
<vehicle id="emergency_0" type="emergency" route="route_3" depart="0" />
<vehicle id="Bus_0" type="Bus" route="route_3" depart="0" />
<vehicle id="Car_0" type="Car" route="route_7" depart="0" />
<vehicle id="Car_1" type="MotorCycle" route="route_24" depart="1" />
<vehicle id="Car_2" type="Car" route="route_24" depart="1" />
<vehicle id="Auto_3" type="MotorCycle" route="route_6" depart="2" />
<vehicle id="MotorCycle_4" type="MotorCycle" route="route_22" depart="2" />
<vehicle id="Bus_5" type="MotorCycle" route="route_23" depart="2" />
<vehicle id="Car_6" type="MotorCycle" route="route_2" depart="3" />
<vehicle id="Auto_7" type="MotorCycle" route="route_21" depart="4" />
<vehicle id="Bus_8" type="MotorCycle" route="route_20" depart="5" />
<vehicle id="Car_9" type="MotorCycle" route="route_22" depart="5" />
<vehicle id="Auto_10" type="MotorCycle" route="route_16" depart="6" />
<vehicle id="Car_11" type="Auto" route="route_21" depart="6" />
<vehicle id="Car_12" type="MotorCycle" route="route_21" depart="6" />
<vehicle id="MotorCycle_13" type="MotorCycle" route="route_22" depart="6" />
<vehicle id="MotorCycle_14" type="Auto" route="route_4" depart="7" />
<vehicle id="MotorCycle_15" type="MotorCycle" route="route_4" depart="7" />
<vehicle id="MotorCycle_16" type="Car" route="route_4" depart="7" />
<vehicle id="Auto_17" type="MotorCycle" route="route_20" depart="7" />
<vehicle id="Car_18" type="MotorCycle" route="route_21" depart="7" />
<vehicle id="Auto_19" type="MotorCycle" route="route_22" depart="8" />
<vehicle id="Car_20" type="MotorCycle" route="route_2" depart="9" />
<vehicle id="Auto_21" type="MotorCycle" route="route_9" depart="9" />
<vehicle id="Bus_22" type="MotorCycle" route="route_21" depart="9" />
<vehicle id="MotorCycle_23" type="MotorCycle" route="route_17" depart="10" />
<vehicle id="Auto_24" type="Car" route="route_21" depart="10" />
<vehicle id="Car_25" type="MotorCycle" route="route_23" depart="10" />
<vehicle id="Bus_26" type="MotorCycle" route="route_21" depart="11" />
<vehicle id="MotorCycle_27" type="MotorCycle" route="route_17" depart="12" />
<vehicle id="MotorCycle_28" type="MotorCycle" route="route_21" depart="12" />
<vehicle id="Car_29" type="MotorCycle" route="route_24" depart="12" />
<vehicle id="Bus_30" type="MotorCycle" route="route_22" depart="13" />
<vehicle id="Auto_31" type="MotorCycle" route="route_2" depart="14" />
<vehicle id="Auto_32" type="Auto" route="route_6" depart="14" />
<vehicle id="Auto_33" type="Car" route="route_6" depart="14" />
<vehicle id="Bus_34" type="MotorCycle" route="route_19" depart="14" />
<vehicle id="Bus_35" type="MotorCycle" route="route_20" depart="14" />
<vehicle id="Auto_36" type="MotorCycle" route="route_24" depart="14" />
<vehicle id="Bus_37" type="MotorCycle" route="route_4" depart="15" />
<vehicle id="Auto_38" type="Bus" route="route_8" depart="16" />
<vehicle id="Auto_39" type="MotorCycle" route="route_8" depart="16" />
<vehicle id="Bus_40" type="MotorCycle" route="route_19" depart="16" />
<vehicle id="Car_41" type="MotorCycle" route="route_24" depart="16" />
<vehicle id="Car_42" type="Car" route="route_24" depart="16" />
<vehicle id="MotorCycle_43" type="MotorCycle" route="route_21" depart="17" />
<vehicle id="MotorCycle_44" type="Auto" route="route_22" depart="17" />
<vehicle id="MotorCycle_45" type="MotorCycle" route="route_22" depart="17" />
<vehicle id="MotorCycle_46" type="Car" route="route_22" depart="17" />
<vehicle id="Bus_47" type="MotorCycle" route="route_23" depart="17" />
<vehicle id="MotorCycle_48" type="Car" route="route_5" depart="18" />
<vehicle id="Car_49" type="MotorCycle" route="route_22" depart="18" />
<vehicle id="Auto_50" type="MotorCycle" route="route_23" depart="18" />
<vehicle id="Car_51" type="Car" route="route_20" depart="19" />
<vehicle id="Auto_52" type="MotorCycle" route="route_21" depart="19" />
<vehicle id="MotorCycle_53" type="Car" route="route_8" depart="20" />
<vehicle id="Car_54" type="MotorCycle" route="route_19" depart="20" />
<vehicle id="Bus_55" type="MotorCycle" route="route_22" depart="20" />
<vehicle id="Car_56" type="MotorCycle" route="route_19" depart="21" />
<vehicle id="Car_57" type="MotorCycle" route="route_21" depart="21" />
<vehicle id="Bus_58" type="MotorCycle" route="route_24" depart="21" />
<vehicle id="Auto_59" type="MotorCycle" route="route_1" depart="22" />
<vehicle id="Bus_60" type="MotorCycle" route="route_21" depart="22" />
<vehicle id="Car_61" type="MotorCycle" route="route_22" depart="22" />
<vehicle id="Bus_62" type="MotorCycle" route="route_7" depart="23" />
<vehicle id="MotorCycle_63" type="MotorCycle" route="route_24" depart="23" />
<vehicle id="Car_64" type="MotorCycle" route="route_23" depart="24" />
<vehicle id="Bus_65" type="Auto" route="route_12" depart="25" />
<vehicle id="Bus_66" type="MotorCycle" route="route_12" depart="25" />
<vehicle id="Car_67" type="MotorCycle" route="route_19" depart="25" />
<vehicle id="Car_68" type="Car" route="route_19" depart="25" />
<vehicle id="Auto_69" type="MotorCycle" route="route_20" depart="25" />
<vehicle id="MotorCycle_70" type="MotorCycle" route="route_23" depart="25" />
<vehicle id="MotorCycle_71" type="Car" route="route_23" depart="25" />
<vehicle id="Auto_72" type="MotorCycle" route="route_20" depart="27" />
<vehicle id="MotorCycle_73" type="MotorCycle" route="route_21" depart="27" />
<vehicle id="MotorCycle_74" type="Car" route="route_21" depart="27" />
<vehicle id="Bus_75" type="MotorCycle" route="route_22" depart="27" />
<vehicle id="Bus_76" type="Car" route="route_22" depart="27" />
<vehicle id="Car_77" type="MotorCycle" route="route_23" depart="27" />
<vehicle id="Car_78" type="MotorCycle" route="route_19" depart="28" />
<vehicle id="Car_79" type="MotorCycle" route="route_22" depart="28" />
<vehicle id="Auto_80" type="MotorCycle" route="route_23" depart="28" />
<vehicle id="Car_81" type="Auto" route="route_20" depart="29" />
<vehicle id="Car_82" type="MotorCycle" route="route_20" depart="29" />
<vehicle id="Car_83" type="MotorCycle" route="route_21" depart="29" />
<vehicle id="Bus_84" type="MotorCycle" route="route_24" depart="30" />
<vehicle id="Car_85" type="MotorCycle" route="route_20" depart="31" />
<vehicle id="Car_86" type="Car" route="route_20" depart="31" />
<vehicle id="Auto_87" type="Car" route="route_9" depart="32" />
<vehicle id="Bus_88" type="MotorCycle" route="route_9" depart="33" />
<vehicle id="Bus_89" type="MotorCycle" route="route_21" depart="33" />
<vehicle id="Bus_90" type="Car" route="route_21" depart="33" />
<vehicle id="MotorCycle_91" type="MotorCycle" route="route_22" depart="33" />
<vehicle id="Car_92" type="MotorCycle" route="route_24" depart="33" />
<vehicle id="MotorCycle_93" type="MotorCycle" route="route_22" depart="34" />
<vehicle id="Auto_94" type="MotorCycle" route="route_4" depart="35" />
<vehicle id="Auto_95" type="MotorCycle" route="route_21" depart="35" />
<vehicle id="Auto_96" type="Car" route="route_21" depart="35" />
<vehicle id="Car_97" type="MotorCycle" route="route_3" depart="36" />
<vehicle id="Auto_98" type="MotorCycle" route="route_19" depart="36" />
<vehicle id="Bus_99" type="MotorCycle" route="route_21" depart="36" />
<vehicle id="Car_100" type="MotorCycle" route="route_24" depart="36" />
<vehicle id="Auto_101" type="MotorCycle" route="route_5" depart="37" />
<vehicle id="Car_102" type="Bus" route="route_13" depart="38" />
<vehicle id="Car_103" type="Car" route="route_13" depart="38" />
<vehicle id="Auto_104" type="MotorCycle" route="route_21" depart="38" />
<vehicle id="Car_105" type="MotorCycle" route="route_22" depart="38" />
<vehicle id="Bus_106" type="MotorCycle" route="route_23" depart="38" />
<vehicle id="MotorCycle_107" type="MotorCycle" route="route_22" depart="39" />
<vehicle id="MotorCycle_108" type="MotorCycle" route="route_3" depart="40" />
<vehicle id="Bus_109" type="MotorCycle" route="route_20" depart="40" />
<vehicle id="Car_110" type="Auto" route="route_21" depart="40" />
<vehicle id="Car_111" type="MotorCycle" route="route_22" depart="40" />
<vehicle id="Auto_112" type="MotorCycle" route="route_21" depart="41" />
<vehicle id="MotorCycle_113" type="MotorCycle" route="route_21" depart="42" />
<vehicle id="Bus_114" type="MotorCycle" route="route_22" depart="42" />
<vehicle id="Car_115" type="MotorCycle" route="route_21" depart="43" />
<vehicle id="Car_116" type="Car" route="route_21" depart="43" />
<vehicle id="Auto_117" type="Bus" route="route_23" depart="43" />
<vehicle id="Auto_118" type="MotorCycle" route="route_23" depart="43" />
<vehicle id="MotorCycle_119" type="MotorCycle" route="route_21" depart="44" />
<vehicle id="Bus_120" type="MotorCycle" route="route_23" depart="44" />
<vehicle id="Bus_121" type="Car" route="route_23" depart="44" />
<vehicle id="MotorCycle_122" type="MotorCycle" route="route_20" depart="45" />
<vehicle id="Car_123" type="MotorCycle" route="route_22" depart="45" />
<vehicle id="Bus_124" type="MotorCycle" route="route_5" depart="46" />
<vehicle id="Car_125" type="MotorCycle" route="route_19" depart="46" />
<vehicle id="Car_126" type="Car" route="route_19" depart="46" />
<vehicle id="MotorCycle_127" type="Auto" route="route_20" depart="46" />
<vehicle id="MotorCycle_128" type="MotorCycle" route="route_20" depart="46" />
<vehicle id="MotorCycle_129" type="MotorCycle" route="route_21" depart="46" />
<vehicle id="Auto_130" type="Auto" route="route_22" depart="46" />
<vehicle id="Auto_131" type="MotorCycle" route="route_22" depart="46" />
<vehicle id="MotorCycle_132" type="MotorCycle" route="route_24" depart="47" />
<vehicle id="MotorCycle_133" type="Car" route="route_24" depart="47" />
<vehicle id="Car_134" type="Car" route="route_3" depart="48" />
<vehicle id="MotorCycle_135" type="MotorCycle" route="route_20" depart="48" />
<vehicle id="MotorCycle_136" type="MotorCycle" route="route_9" depart="49" />
<vehicle id="MotorCycle_137" type="MotorCycle" route="route_19" depart="49" />
<vehicle id="MotorCycle_138" type="Car" route="route_21" depart="49" />
<vehicle id="Car_139" type="MotorCycle" route="route_11" depart="50" />
<vehicle id="Auto_140" type="MotorCycle" route="route_19" depart="50" />
<vehicle id="Bus_141" type="MotorCycle" route="route_21" depart="50" />
<vehicle id="Bus_142" type="MotorCycle" route="route_22" depart="50" />
<vehicle id="MotorCycle_143" type="MotorCycle" route="route_23" depart="50" />
<vehicle id="Bus_144" type="Auto" route="route_1" depart="51" />
<vehicle id="Bus_145" type="MotorCycle" route="route_1" depart="51" />
<vehicle id="Bus_146" type="Car" route="route_1" depart="51" />
<vehicle id="Auto_147" type="MotorCycle" route="route_20" depart="51" />
<vehicle id="Bus_148" type="MotorCycle" route="route_21" depart="51" />
<vehicle id="Bus_149" type="MotorCycle" route="route_7" depart="52" />
<vehicle id="Bus_150" type="Car" route="route_10" depart="52" />
<vehicle id="Bus_151" type="MotorCycle" route="route_21" depart="52" />
<vehicle id="Bus_152" type="Car" route="route_21" depart="52" />
<vehicle id="Car_153" type="Car" route="route_24" depart="52" />
<vehicle id="MotorCycle_154" type="MotorCycle" route="route_3" depart="53" />
<vehicle id="Bus_155" type="MotorCycle" route="route_9" depart="53" />
<vehicle id="Car_156" type="MotorCycle" route="route_20" depart="53" />
<vehicle id="MotorCycle_157" type="MotorCycle" route="route_21" depart="53" />
<vehicle id="MotorCycle_158" type="Car" route="route_21" depart="53" />
<vehicle id="Bus_159" type="Car" route="route_22" depart="53" />
<vehicle id="Bus_160" type="MotorCycle" route="route_9" depart="54" />
<vehicle id="Bus_161" type="Car" route="route_9" depart="54" />
<vehicle id="Car_162" type="MotorCycle" route="route_3" depart="57" />
<vehicle id="Car_163" type="MotorCycle" route="route_23" depart="57" />
<vehicle id="Bus_164" type="MotorCycle" route="route_20" depart="58" />
<vehicle id="Bus_165" type="Car" route="route_20" depart="58" />
<vehicle id="Car_166" type="MotorCycle" route="route_21" depart="58" />
<vehicle id="Auto_167" type="MotorCycle" route="route_22" depart="58" />
<vehicle id="Car_168" type="MotorCycle" route="route_24" depart="58" />
<vehicle id="Auto_169" type="MotorCycle" route="route_2" depart="59" />
<vehicle id="Auto_170" type="MotorCycle" route="route_4" depart="59" />
<vehicle id="Car_171" type="MotorCycle" route="route_21" depart="59" />
<vehicle id="Car_172" type="MotorCycle" route="route_22" depart="60" />
<vehicle id="Auto_173" type="MotorCycle" route="route_23" depart="60" />
<vehicle id="Auto_174" type="Auto" route="route_3" depart="62" />
<vehicle id="Auto_175" type="Car" route="route_3" depart="62" />
<vehicle id="MotorCycle_176" type="MotorCycle" route="route_11" depart="62" />
<vehicle id="Car_177" type="MotorCycle" route="route_13" depart="62" />
<vehicle id="Car_178" type="MotorCycle" route="route_14" depart="62" />
<vehicle id="Auto_179" type="MotorCycle" route="route_19" depart="62" />
<vehicle id="MotorCycle_180" type="MotorCycle" route="route_22" depart="62" />
<vehicle id="Bus_181" type="MotorCycle" route="route_24" depart="62" />
<vehicle id="Bus_182" type="MotorCycle" route="route_13" depart="63" />
<vehicle id="Bus_183" type="MotorCycle" route="route_22" depart="63" />
<vehicle id="Auto_184" type="MotorCycle" route="route_3" depart="64" />
<vehicle id="Car_185" type="MotorCycle" route="route_22" depart="64" />
<vehicle id="Bus_186" type="MotorCycle" route="route_24" depart="64" />
<vehicle id="Auto_187" type="MotorCycle" route="route_21" depart="65" />
<vehicle id="Car_188" type="Car" route="route_22" depart="65" />
<vehicle id="Car_189" type="MotorCycle" route="route_23" depart="65" />
<vehicle id="Car_190" type="Car" route="route_23" depart="65" />
<vehicle id="Bus_191" type="MotorCycle" route="route_20" depart="66" />
<vehicle id="MotorCycle_192" type="MotorCycle" route="route_23" depart="66" />
<vehicle id="MotorCycle_193" type="MotorCycle" route="route_21" depart="67" />
<vehicle id="Bus_194" type="MotorCycle" route="route_22" depart="67" />
<vehicle id="Bus_195" type="Car" route="route_22" depart="67" />
<vehicle id="Car_196" type="MotorCycle" route="route_23" depart="67" />
<vehicle id="MotorCycle_197" type="MotorCycle" route="route_19" depart="68" />
<vehicle id="Auto_198" type="MotorCycle" route="route_22" depart="68" />
<vehicle id="Bus_199" type="MotorCycle" route="route_18" depart="69" />
<vehicle id="MotorCycle_200" type="Bus" route="route_23" depart="69" />
<vehicle id="MotorCycle_201" type="MotorCycle" route="route_23" depart="69" />
<vehicle id="MotorCycle_202" type="MotorCycle" route="route_20" depart="70" />
<vehicle id="MotorCycle_203" type="MotorCycle" route="route_22" depart="70" />
<vehicle id="Car_204" type="MotorCycle" route="route_23" depart="70" />
<vehicle id="Car_205" type="Car" route="route_23" depart="70" />
<vehicle id="MotorCycle_206" type="MotorCycle" route="route_24" depart="70" />
<vehicle id="Car_207" type="MotorCycle" route="route_21" depart="71" />
<vehicle id="MotorCycle_208" type="MotorCycle" route="route_22" depart="71" />
<vehicle id="MotorCycle_209" type="MotorCycle" route="route_23" depart="71" />
<vehicle id="MotorCycle_210" type="MotorCycle" route="route_19" depart="72" />
<vehicle id="MotorCycle_211" type="MotorCycle" route="route_21" depart="72" />
<vehicle id="MotorCycle_212" type="Car" route="route_21" depart="72" />
<vehicle id="Auto_213" type="MotorCycle" route="route_22" depart="72" />
<vehicle id="Bus_214" type="MotorCycle" route="route_23" depart="72" />
<vehicle id="Auto_215" type="MotorCycle" route="route_1" depart="73" />
<vehicle id="Bus_216" type="MotorCycle" route="route_23" depart="73" />
<vehicle id="Car_217" type="MotorCycle" route="route_19" depart="74" />
<vehicle id="MotorCycle_218" type="MotorCycle" route="route_21" depart="74" />
<vehicle id="MotorCycle_219" type="MotorCycle" route="route_22" depart="74" />
<vehicle id="Auto_220" type="MotorCycle" route="route_23" depart="75" />
<vehicle id="Auto_221" type="MotorCycle" route="route_4" depart="76" />
<vehicle id="Bus_222" type="MotorCycle" route="route_19" depart="76" />
<vehicle id="Bus_223" type="MotorCycle" route="route_22" depart="76" />
<vehicle id="Bus_224" type="Bus" route="route_23" depart="76" />
<vehicle id="Bus_225" type="MotorCycle" route="route_23" depart="76" />
<vehicle id="MotorCycle_226" type="MotorCycle" route="route_22" depart="77" />
<vehicle id="Bus_227" type="MotorCycle" route="route_19" depart="78" />
<vehicle id="MotorCycle_228" type="MotorCycle" route="route_21" depart="78" />
<vehicle id="Car_229" type="MotorCycle" route="route_24" depart="78" />
<vehicle id="Auto_230" type="MotorCycle" route="route_3" depart="79" />
<vehicle id="MotorCycle_231" type="MotorCycle" route="route_21" depart="79" />
<vehicle id="Bus_232" type="MotorCycle" route="route_22" depart="79" />
<vehicle id="MotorCycle_233" type="MotorCycle" route="route_24" depart="79" />
<vehicle id="MotorCycle_234" type="Car" route="route_24" depart="79" />
<vehicle id="Auto_235" type="MotorCycle" route="route_21" depart="80" />
<vehicle id="Auto_236" type="Car" route="route_21" depart="80" />
<vehicle id="Car_237" type="MotorCycle" route="route_22" depart="80" />
<vehicle id="Car_238" type="Car" route="route_22" depart="80" />
<vehicle id="Car_239" type="MotorCycle" route="route_1" depart="81" />
<vehicle id="MotorCycle_240" type="MotorCycle" route="route_20" depart="81" />
<vehicle id="Auto_241" type="MotorCycle" route="route_22" depart="81" />
<vehicle id="MotorCycle_242" type="Auto" route="route_20" depart="82" />
<vehicle id="MotorCycle_243" type="MotorCycle" route="route_20" depart="82" />
<vehicle id="MotorCycle_244" type="Car" route="route_20" depart="82" />
<vehicle id="Auto_245" type="MotorCycle" route="route_21" depart="82" />
<vehicle id="Auto_246" type="Car" route="route_21" depart="82" />
<vehicle id="Car_247" type="MotorCycle" route="route_24" depart="82" />
<vehicle id="MotorCycle_248" type="MotorCycle" route="route_13" depart="83" />
<vehicle id="Car_249" type="Auto" route="route_22" depart="83" />
<vehicle id="Car_250" type="MotorCycle" route="route_22" depart="83" />
<vehicle id="Bus_251" type="Car" route="route_23" depart="83" />
<vehicle id="Car_252" type="MotorCycle" route="route_22" depart="84" />
<vehicle id="Car_253" type="MotorCycle" route="route_23" depart="84" />
<vehicle id="Car_254" type="MotorCycle" route="route_21" depart="85" />
<vehicle id="Auto_255" type="MotorCycle" route="route_24" depart="85" />
<vehicle id="Auto_256" type="MotorCycle" route="route_3" depart="86" />
<vehicle id="Bus_257" type="MotorCycle" route="route_20" depart="86" />
<vehicle id="Car_258" type="Car" route="route_21" depart="86" />
<vehicle id="MotorCycle_259" type="MotorCycle" route="route_22" depart="86" />
<vehicle id="MotorCycle_260" type="Car" route="route_22" depart="86" />
<vehicle id="Car_261" type="MotorCycle" route="route_2" depart="87" />
<vehicle id="Car_262" type="MotorCycle" route="route_3" depart="87" />
<vehicle id="Car_263" type="MotorCycle" route="route_21" depart="87" />
<vehicle id="Car_264" type="MotorCycle" route="route_22" depart="87" />
<vehicle id="Car_265" type="Car" route="route_22" depart="87" />
<vehicle id="Bus_266" type="Auto" route="route_24" depart="87" />
<vehicle id="Bus_267" type="MotorCycle" route="route_24" depart="87" />
<vehicle id="MotorCycle_268" type="Car" route="route_19" depart="88" />
<vehicle id="MotorCycle_269" type="MotorCycle" route="route_22" depart="88" />
<vehicle id="Car_270" type="MotorCycle" route="route_24" depart="88" />
<vehicle id="Auto_271" type="MotorCycle" route="route_1" depart="89" />
<vehicle id="MotorCycle_272" type="MotorCycle" route="route_20" depart="89" />
<vehicle id="MotorCycle_273" type="Car" route="route_20" depart="89" />
<vehicle id="MotorCycle_274" type="Bus" route="route_23" depart="89" />
<vehicle id="MotorCycle_275" type="Car" route="route_23" depart="89" />
<vehicle id="Car_276" type="Auto" route="route_24" depart="89" />
<vehicle id="Car_277" type="MotorCycle" route="route_24" depart="89" />
<vehicle id="Car_278" type="MotorCycle" route="route_23" depart="90" />
<vehicle id="MotorCycle_279" type="MotorCycle" route="route_2" depart="91" />
<vehicle id="Car_280" type="MotorCycle" route="route_6" depart="91" />
<vehicle id="MotorCycle_281" type="MotorCycle" route="route_22" depart="91" />
<vehicle id="MotorCycle_282" type="Auto" route="route_23" depart="91" />
<vehicle id="MotorCycle_283" type="MotorCycle" route="route_23" depart="91" />
<vehicle id="MotorCycle_284" type="MotorCycle" route="route_24" depart="91" />
<vehicle id="Car_285" type="MotorCycle" route="route_21" depart="92" />
<vehicle id="Car_286" type="Car" route="route_21" depart="92" />
<vehicle id="Car_287" type="MotorCycle" route="route_5" depart="93" />
<vehicle id="Car_288" type="Car" route="route_5" depart="93" />
<vehicle id="Car_289" type="MotorCycle" route="route_22" depart="93" />
<vehicle id="Car_290" type="MotorCycle" route="route_8" depart="94" />
<vehicle id="Car_291" type="Car" route="route_8" depart="94" />
<vehicle id="Auto_292" type="MotorCycle" route="route_12" depart="95" />
<vehicle id="Auto_293" type="MotorCycle" route="route_19" depart="95" />
<vehicle id="Auto_294" type="Car" route="route_19" depart="95" />
<vehicle id="MotorCycle_295" type="MotorCycle" route="route_21" depart="95" />
<vehicle id="MotorCycle_296" type="Car" route="route_21" depart="95" />
<vehicle id="Bus_297" type="MotorCycle" route="route_22" depart="95" />
<vehicle id="Bus_298" type="Car" route="route_22" depart="95" />
<vehicle id="MotorCycle_299" type="MotorCycle" route="route_24" depart="96" />
<vehicle id="MotorCycle_300" type="MotorCycle" route="route_19" depart="97" />
<vehicle id="Auto_301" type="MotorCycle" route="route_21" depart="97" />
<vehicle id="Auto_302" type="Car" route="route_21" depart="97" />
<vehicle id="MotorCycle_303" type="MotorCycle" route="route_9" depart="98" />
<vehicle id="MotorCycle_304" type="MotorCycle" route="route_20" depart="99" />
<vehicle id="Auto_305" type="MotorCycle" route="route_23" depart="99" />
<vehicle id="Bus_306" type="Auto" route="route_24" depart="99" />
<vehicle id="Bus_307" type="MotorCycle" route="route_24" depart="99" />
<vehicle id="MotorCycle_308" type="MotorCycle" route="route_7" depart="100" />
<vehicle id="Auto_309" type="Bus" route="route_10" depart="100" />
<vehicle id="Auto_310" type="MotorCycle" route="route_10" depart="100" />
<vehicle id="Car_311" type="MotorCycle" route="route_21" depart="100" />
<vehicle id="Car_312" type="Bus" route="route_6" depart="101" />
<vehicle id="Car_313" type="MotorCycle" route="route_6" depart="101" />
<vehicle id="Car_314" type="MotorCycle" route="route_22" depart="101" />
<vehicle id="MotorCycle_315" type="MotorCycle" route="route_5" depart="102" />
<vehicle id="MotorCycle_316" type="MotorCycle" route="route_21" depart="102" />
<vehicle id="Car_317" type="MotorCycle" route="route_22" depart="102" />
<vehicle id="MotorCycle_318" type="MotorCycle" route="route_23" depart="102" />
<vehicle id="Auto_319" type="MotorCycle" route="route_24" depart="102" />
<vehicle id="Car_320" type="MotorCycle" route="route_4" depart="103" />
<vehicle id="MotorCycle_321" type="MotorCycle" route="route_11" depart="103" />
<vehicle id="Car_322" type="MotorCycle" route="route_2" depart="104" />
<vehicle id="Auto_323" type="MotorCycle" route="route_4" depart="104" />
<vehicle id="Auto_324" type="Car" route="route_4" depart="104" />
<vehicle id="Auto_325" type="MotorCycle" route="route_19" depart="104" />
<vehicle id="Auto_326" type="Car" route="route_19" depart="104" />
<vehicle id="Car_327" type="MotorCycle" route="route_23" depart="104" />
<vehicle id="Auto_328" type="MotorCycle" route="route_4" depart="105" />
<vehicle id="Auto_329" type="MotorCycle" route="route_22" depart="107" />
<vehicle id="Car_330" type="MotorCycle" route="route_23" depart="107" />
<vehicle id="Car_331" type="Car" route="route_23" depart="107" />
<vehicle id="MotorCycle_332" type="MotorCycle" route="route_24" depart="107" />
<vehicle id="Bus_333" type="MotorCycle" route="route_23" depart="108" />
<vehicle id="Bus_334" type="MotorCycle" route="route_2" depart="110" />
<vehicle id="Car_335" type="MotorCycle" route="route_21" depart="110" />
<vehicle id="MotorCycle_336" type="MotorCycle" route="route_22" depart="110" />
<vehicle id="Bus_337" type="MotorCycle" route="route_23" depart="110" />
<vehicle id="Bus_338" type="Car" route="route_23" depart="110" />
<vehicle id="MotorCycle_339" type="MotorCycle" route="route_19" depart="111" />
<vehicle id="MotorCycle_340" type="MotorCycle" route="route_21" depart="111" />
<vehicle id="Bus_341" type="Auto" route="route_7" depart="112" />
<vehicle id="Bus_342" type="MotorCycle" route="route_20" depart="112" />
<vehicle id="Bus_343" type="Car" route="route_20" depart="112" />
<vehicle id="Car_344" type="MotorCycle" route="route_22" depart="112" />
<vehicle id="Auto_345" type="MotorCycle" route="route_19" depart="113" />
<vehicle id="Auto_346" type="MotorCycle" route="route_21" depart="113" />
<vehicle id="Bus_347" type="MotorCycle" route="route_24" depart="113" />
<vehicle id="Bus_348" type="Car" route="route_24" depart="113" />
<vehicle id="Auto_349" type="MotorCycle" route="route_21" depart="114" />
<vehicle id="Auto_350" type="Car" route="route_21" depart="114" />
<vehicle id="Car_351" type="MotorCycle" route="route_22" depart="114" />
<vehicle id="MotorCycle_352" type="Auto" route="route_23" depart="114" />
<vehicle id="Auto_353" type="MotorCycle" route="route_24" depart="114" />
<vehicle id="MotorCycle_354" type="MotorCycle" route="route_3" depart="115" />
<vehicle id="MotorCycle_355" type="Car" route="route_3" depart="115" />
<vehicle id="Car_356" type="MotorCycle" route="route_21" depart="115" />
<vehicle id="Auto_357" type="MotorCycle" route="route_5" depart="116" />
<vehicle id="Auto_358" type="MotorCycle" route="route_21" depart="116" />
<vehicle id="Auto_359" type="MotorCycle" route="route_22" depart="116" />
<vehicle id="Bus_360" type="Auto" route="route_15" depart="117" />
<vehicle id="Bus_361" type="MotorCycle" route="route_15" depart="117" />
<vehicle id="Bus_362" type="Car" route="route_15" depart="117" />
<vehicle id="MotorCycle_363" type="Car" route="route_24" depart="118" />
<vehicle id="MotorCycle_364" type="MotorCycle" route="route_20" depart="119" />
<vehicle id="MotorCycle_365" type="MotorCycle" route="route_21" depart="119" />
<vehicle id="Auto_366" type="MotorCycle" route="route_24" depart="119" />
<vehicle id="MotorCycle_367" type="MotorCycle" route="route_2" depart="121" />
<vehicle id="Car_368" type="MotorCycle" route="route_3" depart="121" />
<vehicle id="MotorCycle_369" type="MotorCycle" route="route_18" depart="121" />
<vehicle id="Bus_370" type="MotorCycle" route="route_20" depart="121" />
<vehicle id="Auto_371" type="MotorCycle" route="route_21" depart="121" />
<vehicle id="MotorCycle_372" type="MotorCycle" route="route_22" depart="121" />
<vehicle id="Car_373" type="MotorCycle" route="route_19" depart="122" />
<vehicle id="Bus_374" type="MotorCycle" route="route_21" depart="122" />