<routes>
<vType id="Bus" accel="0.6" decel="3.5" sigma="0.5" length="10.1" minGap="1.0" maxSpeed="16.67" carFollowModel="Wiedemann" guiShape="bus" width="2.45" latAlignment="left" laneChangeModel="SL2015" lcStrategic="0.5" lcCooperative="0.0"/>
<vType id="Auto" accel="0.7" decel="4.5" sigma="0.5" length="2.6" minGap="0.3" maxSpeed="16" carFollowModel="Wiedemann" guiShape="passenger/sedan" width="1.25" latAlignment="left" laneChangeModel="SL2015" lcStrategic="0.5" lcCooperative="0.0" />
<vType id="MotorCycle" accel="0.9" decel="3.5" sigma="0.5" length="1.85" minGap="0.15"  carFollowModel="Wiedemann" maxSpeed="17" guiShape="motorcycle" width="0.7" latAlignment="left" laneChangeModel="SL2015" lcStrategic="0.5" lcCooperative="0.0"/>
<vType id="Car" accel="0.8" decel="4.5" sigma="0.5" length="3.6" minGap="0.5" maxSpeed="40" carFollowModel="Wiedemann" guiShape="passenger" width="1.5" latAlignment="left" laneChangeModel="SL2015" lcStrategic="0.5" lcCooperative="0.0"/>
<vType id="emergency" accel="2.8" decel="5.5" sigma="0.5" length="3.6" minGap="0.5" maxSpeed="120.6" carFollowModel="Wiedemann" guiShape="emergency" width="1.5" latAlignment="left" laneChangeModel="SL2015" lcStrategic="0.5" lcCooperative="0.0" vClass="emergency" speedFactor="1.9" jmDriveAfterRedTime="300" jmDriveAfterRedSpeed="5.56">
<param key="has.bluelight.device" value="true"/>
<param key="has.fcd.device" value="true"/> 
</vType>
<route id="route_0" edges="1i 52i gneE0 gneE2" />
<route id="route_1" edges="-gneE2 -gneE0 52o 2i 1o" />
        <route id="route_2" edges="4i 3o" />
        <route id="route_3" edges="3i 4o" />
        <route id="route_4" edges="-gneE1 gneE3" /> 
        <route id="route_5" edges="4i 1o" />
        <route id="route_6" edges="4i 2o 52i gneE0 gneE1" />
        <route id="route_7" edges="2i 4o" />
        <route id="route_8" edges="2i 3o" />
        <route id="route_9" edges="-gneE1 gneE3" />
        <route id="route_10" edges="3i 2o 52i gneE0 gneE3" />
        <route id="route_11" edges="3i 1o" />
        <route id="route_12" edges="-gneE1 -gneE0 52o 2i 4o" />
        <route id="route_13" edges="-gneE1 gneE2" />
        <route id="route_14" edges="-gneE2 gneE1" />
        <route id="route_15" edges="-gneE2 gneE3" />
        <route id="route_16" edges="-gneE3 -gneE0 52o 2i 3o" />
        <route id="route_17" edges="-gneE3 gneE2" />
        <route id="route_18" edges="gneE0 gneE3" />
        <route id="route_19" edges="gneE0 gneE1" />
        <route id="route_20" edges="1i 2o 52i gneE0 gneE2 -gneE4 gneE5" />
        <route id="route_21" edges="-gneE5 gneE4 -gneE2 -gneE0 52o 2i 1o" />
        <route id="route_22" edges="-gneE5 gneE4 -gneE2 -gneE0 52o 2i 3o" />
        <route id="route_23" edges="1i 2o 52i gneE0 gneE2 -gneE4 gneE7" />

	<route id="route_24" edges="gneE0"/>
<vehicle id="emergency_0" type="emergency" route="route_7" depart="0" />
<vehicle id="Bus_0" type="Bus" route="route_7" depart="0" />
<vehicle id="Car_0" type="Car" route="route_4" depart="0" />
<vehicle id="Auto_1" type="MotorCycle" route="route_5" depart="1" />
<vehicle id="Auto_2" type="MotorCycle" route="route_8" depart="1" />
<vehicle id="Bus_3" type="MotorCycle" route="route_4" depart="2" />
<vehicle id="Bus_4" type="MotorCycle" route="route_19" depart="2" />
<vehicle id="Car_5" type="MotorCycle" route="route_21" depart="2" />
<vehicle id="Auto_6" type="MotorCycle" route="route_22" depart="2" />
<vehicle id="Auto_7" type="Car" route="route_22" depart="2" />
<vehicle id="Bus_8" type="MotorCycle" route="route_24" depart="2" />
<vehicle id="Auto_9" type="MotorCycle" route="route_21" depart="3" />
<vehicle id="Bus_10" type="Bus" route="route_22" depart="3" />
<vehicle id="Bus_11" type="MotorCycle" route="route_22" depart="3" />
<vehicle id="Car_12" type="MotorCycle" route="route_24" depart="4" />
<vehicle id="Auto_13" type="MotorCycle" route="route_3" depart="5" />
<vehicle id="Car_14" type="MotorCycle" route="route_10" depart="5" />
<vehicle id="Car_15" type="MotorCycle" route="route_20" depart="5" />
<vehicle id="Car_16" type="MotorCycle" route="route_21" depart="5" />
<vehicle id="Auto_17" type="MotorCycle" route="route_24" depart="5" />
<vehicle id="Bus_18" type="Auto" route="route_21" depart="6" />
<vehicle id="Bus_19" type="MotorCycle" route="route_21" depart="6" />
<vehicle id="MotorCycle_20" type="MotorCycle" route="route_4" depart="7" />
<vehicle id="Auto_21" type="MotorCycle" route="route_21" depart="7" />
<vehicle id="Auto_22" type="Car" route="route_21" depart="7" />
<vehicle id="Auto_23" type="MotorCycle" route="route_22" depart="7" />
<vehicle id="Auto_24" type="MotorCycle" route="route_17" depart="8" />
<vehicle id="MotorCycle_25" type="MotorCycle" route="route_24" depart="8" />
<vehicle id="MotorCycle_26" type="MotorCycle" route="route_8" depart="10" />
<vehicle id="Car_27" type="Auto" route="route_20" depart="10" />
<vehicle id="Car_28" type="MotorCycle" route="route_21" depart="10" />
<vehicle id="Car_29" type="Car" route="route_21" depart="10" />
<vehicle id="Bus_30" type="MotorCycle" route="route_22" depart="10" />
<vehicle id="Bus_31" type="MotorCycle" route="route_5" depart="11" />
<vehicle id="Auto_32" type="MotorCycle" route="route_20" depart="11" />
<vehicle id="Bus_33" type="MotorCycle" route="route_22" depart="11" />
<vehicle id="Bus_34" type="Car" route="route_22" depart="11" />
<vehicle id="Auto_35" type="MotorCycle" route="route_20" depart="12" />
<vehicle id="Auto_36" type="Car" route="route_20" depart="12" />
<vehicle id="Car_37" type="MotorCycle" route="route_22" depart="12" />
<vehicle id="MotorCycle_38" type="MotorCycle" route="route_7" depart="13" />
<vehicle id="Auto_39" type="MotorCycle" route="route_22" depart="13" />
<vehicle id="Auto_40" type="Auto" route="route_23" depart="14" />
<vehicle id="Auto_41" type="MotorCycle" route="route_23" depart="14" />
<vehicle id="Car_42" type="MotorCycle" route="route_2" depart="15" />
<vehicle id="Auto_43" type="MotorCycle" route="route_19" depart="15" />
<vehicle id="Car_44" type="MotorCycle" route="route_21" depart="15" />
<vehicle id="MotorCycle_45" type="MotorCycle" route="route_7" depart="16" />
<vehicle id="Car_46" type="MotorCycle" route="route_21" depart="16" />
<vehicle id="Auto_47" type="MotorCycle" route="route_23" depart="16" />
<vehicle id="MotorCycle_48" type="MotorCycle" route="route_24" depart="16" />
<vehicle id="Bus_49" type="MotorCycle" route="route_21" depart="17" />
<vehicle id="Auto_50" type="MotorCycle" route="route_23" depart="17" />
<vehicle id="Bus_51" type="MotorCycle" route="route_24" depart="17" />
<vehicle id="Bus_52" type="MotorCycle" route="route_21" depart="18" />
<vehicle id="Car_53" type="Auto" route="route_13" depart="19" />
<vehicle id="Car_54" type="MotorCycle" route="route_13" depart="19" />
<vehicle id="Auto_55" type="Car" route="route_20" depart="19" />
<vehicle id="MotorCycle_56" type="Auto" route="route_22" depart="20" />
<vehicle id="MotorCycle_57" type="MotorCycle" route="route_22" depart="20" />
<vehicle id="MotorCycle_58" type="MotorCycle" route="route_23" depart="20" />
<vehicle id="MotorCycle_59" type="MotorCycle" route="route_2" depart="21" />
<vehicle id="MotorCycle_60" type="Car" route="route_4" depart="21" />
<vehicle id="MotorCycle_61" type="MotorCycle" route="route_9" depart="21" />
<vehicle id="Auto_62" type="Auto" route="route_11" depart="21" />
<vehicle id="Auto_63" type="MotorCycle" route="route_11" depart="21" />
<vehicle id="Auto_64" type="Car" route="route_11" depart="21" />
<vehicle id="Car_65" type="MotorCycle" route="route_22" depart="21" />
<vehicle id="Auto_66" type="MotorCycle" route="route_19" depart="22" />
<vehicle id="Bus_67" type="Bus" route="route_21" depart="22" />
<vehicle id="Bus_68" type="MotorCycle" route="route_21" depart="22" />
<vehicle id="Car_69" type="MotorCycle" route="route_22" depart="22" />
<vehicle id="Auto_70" type="MotorCycle" route="route_22" depart="23" />
<vehicle id="MotorCycle_71" type="MotorCycle" route="route_23" depart="23" />
<vehicle id="MotorCycle_72" type="MotorCycle" route="route_24" depart="23" />
<vehicle id="Auto_73" type="MotorCycle" route="route_19" depart="24" />
<vehicle id="Auto_74" type="Auto" route="route_21" depart="24" />
<vehicle id="Auto_75" type="MotorCycle" route="route_21" depart="24" />
<vehicle id="Auto_76" type="MotorCycle" route="route_23" depart="24" />
<vehicle id="Car_77" type="MotorCycle" route="route_1" depart="25" />
<vehicle id="Bus_78" type="MotorCycle" route="route_21" depart="25" />
<vehicle id="Bus_79" type="Car" route="route_21" depart="25" />
<vehicle id="MotorCycle_80" type="MotorCycle" route="route_21" depart="26" />
<vehicle id="Bus_81" type="MotorCycle" route="route_23" depart="26" />
<vehicle id="Bus_82" type="MotorCycle" route="route_24" depart="26" />
<vehicle id="MotorCycle_83" type="MotorCycle" route="route_14" depart="27" />
<vehicle id="Bus_84" type="Car" route="route_15" depart="27" />
<vehicle id="Car_85" type="MotorCycle" route="route_20" depart="27" />
<vehicle id="MotorCycle_86" type="MotorCycle" route="route_21" depart="27" />
<vehicle id="Car_87" type="MotorCycle" route="route_24" depart="27" />
<vehicle id="Car_88" type="Car" route="route_24" depart="27" />
<vehicle id="Car_89" type="MotorCycle" route="route_5" depart="28" />
<vehicle id="MotorCycle_90" type="MotorCycle" route="route_7" depart="28" />
<vehicle id="MotorCycle_91" type="Car" route="route_7" depart="28" />
<vehicle id="Car_92" type="MotorCycle" route="route_10" depart="28" />
<vehicle id="Car_93" type="Car" route="route_10" depart="28" />
<vehicle id="Bus_94" type="MotorCycle" route="route_19" depart="28" />
<vehicle id="Auto_95" type="MotorCycle" route="route_21" depart="28" />
<vehicle id="Auto_96" type="MotorCycle" route="route_23" depart="28" />
<vehicle id="Auto_97" type="MotorCycle" route="route_17" depart="29" />
<vehicle id="Bus_98" type="MotorCycle" route="route_24" depart="29" />
<vehicle id="MotorCycle_99" type="MotorCycle" route="route_18" depart="30" />
<vehicle id="MotorCycle_100" type="Car" route="route_19" depart="30" />
<vehicle id="Bus_101" type="MotorCycle" route="route_22" depart="30" />
<vehicle id="Auto_102" type="MotorCycle" route="route_23" depart="30" />
<vehicle id="Auto_103" type="Car" route="route_23" depart="30" />
<vehicle id="Bus_104" type="MotorCycle" route="route_20" depart="31" />
<vehicle id="MotorCycle_105" type="MotorCycle" route="route_22" depart="32" />
<vehicle id="Car_106" type="MotorCycle" route="route_3" depart="33" />
<vehicle id="Car_107" type="Car" route="route_3" depart="33" />
<vehicle id="MotorCycle_108" type="MotorCycle" route="route_20" depart="33" />
<vehicle id="Auto_109" type="MotorCycle" route="route_21" depart="33" />
<vehicle id="Bus_110" type="MotorCycle" route="route_22" depart="33" />
<vehicle id="Car_111" type="MotorCycle" route="route_24" depart="33" />
<vehicle id="Car_112" type="Car" route="route_24" depart="33" />
<vehicle id="Bus_113" type="MotorCycle" route="route_15" depart="34" />
<vehicle id="Car_114" type="MotorCycle" route="route_21" depart="34" />
<vehicle id="Auto_115" type="MotorCycle" route="route_19" depart="35" />
<vehicle id="MotorCycle_116" type="MotorCycle" route="route_24" depart="35" />
<vehicle id="Auto_117" type="MotorCycle" route="route_20" depart="36" />
<vehicle id="Bus_118" type="MotorCycle" route="route_21" depart="36" />
<vehicle id="Auto_119" type="MotorCycle" route="route_22" depart="36" />
<vehicle id="MotorCycle_120" type="MotorCycle" route="route_23" depart="36" />
<vehicle id="Car_121" type="MotorCycle" route="route_19" depart="37" />
<vehicle id="Bus_122" type="MotorCycle" route="route_24" depart="37" />
<vehicle id="Auto_123" type="MotorCycle" route="route_22" depart="38" />
<vehicle id="Car_124" type="MotorCycle" route="route_19" depart="39" />
<vehicle id="Car_125" type="Car" route="route_19" depart="39" />
<vehicle id="Car_126" type="MotorCycle" route="route_22" depart="39" />
<vehicle id="Bus_127" type="MotorCycle" route="route_23" depart="39" />
<vehicle id="Bus_128" type="Car" route="route_23" depart="39" />
<vehicle id="MotorCycle_129" type="MotorCycle" route="route_19" depart="40" />
<vehicle id="MotorCycle_130" type="MotorCycle" route="route_22" depart="40" />
<vehicle id="Car_131" type="Car" route="route_24" depart="40" />
<vehicle id="Auto_132" type="MotorCycle" route="route_5" depart="41" />
<vehicle id="Car_133" type="MotorCycle" route="route_21" depart="41" />
<vehicle id="Car_134" type="Car" route="route_21" depart="41" />
<vehicle id="Bus_135" type="MotorCycle" route="route_22" depart="41" />
<vehicle id="Auto_136" type="MotorCycle" route="route_8" depart="42" />
<vehicle id="Bus_137" type="MotorCycle" route="route_22" depart="42" />
<vehicle id="Auto_138" type="MotorCycle" route="route_24" depart="42" />
<vehicle id="Car_139" type="MotorCycle" route="route_21" depart="43" />
<vehicle id="Car_140" type="MotorCycle" route="route_22" depart="43" />
<vehicle id="MotorCycle_141" type="Auto" route="route_23" depart="43" />
<vehicle id="MotorCycle_142" type="MotorCycle" route="route_23" depart="43" />
<vehicle id="Auto_143" type="MotorCycle" route="route_4" depart="44" />
<vehicle id="Auto_144" type="Car" route="route_4" depart="44" />
<vehicle id="Car_145" type="MotorCycle" route="route_20" depart="44" />
<vehicle id="Car_146" type="Auto" route="route_21" depart="44" />
<vehicle id="Car_147" type="MotorCycle" route="route_21" depart="44" />
<vehicle id="Car_148" type="Car" route="route_21" depart="44" />
<vehicle id="MotorCycle_149" type="MotorCycle" route="route_24" depart="44" />
<vehicle id="Car_150" type="MotorCycle" route="route_11" depart="45" />
<vehicle id="Auto_151" type="MotorCycle" route="route_17" depart="45" />
<vehicle id="Bus_152" type="MotorCycle" route="route_19" depart="45" />
<vehicle id="Bus_153" type="Auto" route="route_20" depart="46" />
<vehicle id="Auto_154" type="MotorCycle" route="route_22" depart="46" />
<vehicle id="Bus_155" type="MotorCycle" route="route_3" depart="47" />
<vehicle id="MotorCycle_156" type="MotorCycle" route="route_20" depart="47" />
<vehicle id="Bus_157" type="MotorCycle" route="route_24" depart="47" />
<vehicle id="Car_158" type="MotorCycle" route="route_22" depart="49" />
<vehicle id="Auto_159" type="MotorCycle" route="route_23" depart="49" />
<vehicle id="Car_160" type="MotorCycle" route="route_6" depart="50" />
<vehicle id="Bus_161" type="MotorCycle" route="route_20" depart="50" />
<vehicle id="Car_162" type="MotorCycle" route="route_21" depart="50" />
<vehicle id="Car_163" type="Car" route="route_21" depart="50" />
<vehicle id="Bus_164" type="Car" route="route_22" depart="50" />
<vehicle id="MotorCycle_165" type="MotorCycle" route="route_22" depart="51" />
<vehicle id="Auto_166" type="Auto" route="route_5" depart="52" />
<vehicle id="Auto_167" type="MotorCycle" route="route_17" depart="53" />
<vehicle id="Bus_168" type="Car" route="route_20" depart="53" />
<vehicle id="MotorCycle_169" type="MotorCycle" route="route_3" depart="54" />
<vehicle id="Bus_170" type="MotorCycle" route="route_21" depart="54" />
<vehicle id="Bus_171" type="MotorCycle" route="route_24" depart="54" />
<vehicle id="Auto_172" type="MotorCycle" route="route_3" depart="55" />
<vehicle id="Bus_173" type="MotorCycle" route="route_22" depart="55" />
<vehicle id="Bus_174" type="Car" route="route_22" depart="55" />
<vehicle id="Bus_175" type="MotorCycle" route="route_24" depart="55" />
<vehicle id="MotorCycle_176" type="MotorCycle" route="route_20" depart="56" />
<vehicle id="MotorCycle_177" type="Bus" route="route_2" depart="57" />
<vehicle id="Car_178" type="MotorCycle" route="route_12" depart="57" />
<vehicle id="Car_179" type="MotorCycle" route="route_22" depart="57" />
<vehicle id="Car_180" type="Car" route="route_22" depart="57" />
<vehicle id="MotorCycle_181" type="MotorCycle" route="route_23" depart="57" />
<vehicle id="MotorCycle_182" type="MotorCycle" route="route_24" depart="57" />
<vehicle id="Auto_183" type="MotorCycle" route="route_1" depart="58" />
<vehicle id="MotorCycle_184" type="MotorCycle" route="route_22" depart="58" />
<vehicle id="MotorCycle_185" type="Car" route="route_22" depart="58" />
<vehicle id="Auto_186" type="MotorCycle" route="route_15" depart="59" />
<vehicle id="Auto_187" type="Auto" route="route_20" depart="59" />
<vehicle id="Auto_188" type="MotorCycle" route="route_20" depart="59" />
<vehicle id="Auto_189" type="MotorCycle" route="route_22" depart="59" />
<vehicle id="Auto_190" type="MotorCycle" route="route_24" depart="59" />
<vehicle id="Bus_191" type="MotorCycle" route="route_4" depart="60" />
<vehicle id="Bus_192" type="MotorCycle" route="route_20" depart="60" />
<vehicle id="Auto_193" type="MotorCycle" route="route_21" depart="60" />
<vehicle id="Auto_194" type="Car" route="route_21" depart="60" />
<vehicle id="MotorCycle_195" type="Auto" route="route_23" depart="60" />
<vehicle id="MotorCycle_196" type="MotorCycle" route="route_23" depart="60" />
<vehicle id="Bus_197" type="MotorCycle" route="route_10" depart="61" />
<vehicle id="MotorCycle_198" type="MotorCycle" route="route_19" depart="61" />
<vehicle id="MotorCycle_199" type="MotorCycle" route="route_20" depart="62" />
<vehicle id="MotorCycle_200" type="Car" route="route_20" depart="62" />
<vehicle id="MotorCycle_201" type="Auto" route="route_21" depart="62" />
<vehicle id="MotorCycle_202" type="MotorCycle" route="route_21" depart="62" />
<vehicle id="Bus_203" type="Auto" route="route_2" depart="63" />
<vehicle id="Auto_204" type="MotorCycle" route="route_7" depart="63" />
<vehicle id="Bus_205" type="MotorCycle" route="route_20" depart="63" />
<vehicle id="Car_206" type="MotorCycle" route="route_21" depart="63" />
<vehicle id="Bus_207" type="MotorCycle" route="route_22" depart="63" />
<vehicle id="MotorCycle_208" type="Auto" route="route_20" depart="64" />
<vehicle id="MotorCycle_209" type="MotorCycle" route="route_20" depart="64" />
<vehicle id="MotorCycle_210" type="MotorCycle" route="route_22" depart="64" />
<vehicle id="MotorCycle_211" type="MotorCycle" route="route_23" depart="64" />
<vehicle id="MotorCycle_212" type="Car" route="route_23" depart="64" />
<vehicle id="Car_213" type="MotorCycle" route="route_24" depart="64" />
<vehicle id="Bus_214" type="Bus" route="route_1" depart="65" />
<vehicle id="Bus_215" type="MotorCycle" route="route_1" depart="65" />
<vehicle id="Bus_216" type="Car" route="route_1" depart="65" />
<vehicle id="Car_217" type="Car" route="route_21" depart="65" />
<vehicle id="MotorCycle_218" type="MotorCycle" route="route_22" depart="65" />
<vehicle id="Auto_219" type="Auto" route="route_6" depart="66" />
<vehicle id="Auto_220" type="MotorCycle" route="route_6" depart="66" />
<vehicle id="MotorCycle_221" type="MotorCycle" route="route_1" depart="67" />
<vehicle id="Auto_222" type="Auto" route="route_23" depart="67" />
<vehicle id="Auto_223" type="MotorCycle" route="route_23" depart="67" />
<vehicle id="Auto_224" type="Car" route="route_23" depart="67" />
<vehicle id="Car_225" type="MotorCycle" route="route_24" depart="67" />
<vehicle id="Car_226" type="Car" route="route_24" depart="67" />
<vehicle id="Auto_227" type="MotorCycle" route="route_10" depart="68" />
<vehicle id="Auto_228" type="Car" route="route_10" depart="68" />
<vehicle id="Car_229" type="MotorCycle" route="route_15" depart="68" />
<vehicle id="MotorCycle_230" type="MotorCycle" route="route_22" depart="68" />
<vehicle id="Bus_231" type="MotorCycle" route="route_10" depart="69" />
<vehicle id="Bus_232" type="MotorCycle" route="route_1" depart="70" />
<vehicle id="Auto_233" type="MotorCycle" route="route_19" depart="70" />
<vehicle id="MotorCycle_234" type="MotorCycle" route="route_21" depart="70" />
<vehicle id="MotorCycle_235" type="Auto" route="route_3" depart="71" />
<vehicle id="MotorCycle_236" type="MotorCycle" route="route_3" depart="71" />
<vehicle id="Bus_237" type="MotorCycle" route="route_20" depart="71" />
<vehicle id="Bus_238" type="MotorCycle" route="route_21" depart="71" />
<vehicle id="Bus_239" type="MotorCycle" route="route_24" depart="71" />
<vehicle id="Auto_240" type="MotorCycle" route="route_22" depart="72" />
<vehicle id="Bus_241" type="MotorCycle" route="route_20" depart="73" />
<vehicle id="Auto_242" type="Auto" route="route_22" depart="73" />
<vehicle id="Auto_243" type="MotorCycle" route="route_22" depart="73" />
<vehicle id="Auto_244" type="MotorCycle" route="route_23" depart="73" />
<vehicle id="Bus_245" type="MotorCycle" route="route_7" depart="74" />
<vehicle id="Bus_246" type="MotorCycle" route="route_18" depart="74" />
<vehicle id="Bus_247" type="Car" route="route_18" depart="74" />
<vehicle id="MotorCycle_248" type="MotorCycle" route="route_22" depart="74" />
<vehicle id="Auto_249" type="Car" route="route_23" depart="75" />
<vehicle id="MotorCycle_250" type="Car" route="route_24" depart="75" />
<vehicle id="MotorCycle_251" type="MotorCycle" route="route_24" depart="76" />
<vehicle id="Bus_252" type="Auto" route="route_21" depart="77" />
<vehicle id="Bus_253" type="MotorCycle" route="route_21" depart="77" />
<vehicle id="Bus_254" type="Car" route="route_21" depart="77" />
<vehicle id="Auto_255" type="MotorCycle" route="route_21" depart="78" />
<vehicle id="Auto_256" type="MotorCycle" route="route_22" depart="78" />
<vehicle id="Bus_257" type="MotorCycle" route="route_23" depart="78" />
<vehicle id="Car_258" type="MotorCycle" route="route_12" depart="79" />
<vehicle id="Auto_259" type="MotorCycle" route="route_19" depart="79" />
<vehicle id="Auto_260" type="MotorCycle" route="route_22" depart="79" />
<vehicle id="Bus_261" type="MotorCycle" route="route_23" depart="79" />
<vehicle id="MotorCycle_262" type="MotorCycle" route="route_24" depart="80" />
<vehicle id="MotorCycle_263" type="Car" route="route_24" depart="80" />
<vehicle id="MotorCycle_264" type="MotorCycle" route="route_14" depart="81" />
<vehicle id="Bus_265" type="Bus" route="route_21" depart="81" />
<vehicle id="Bus_266" type="MotorCycle" route="route_21" depart="81" />
<vehicle id="Car_267" type="MotorCycle" route="route_22" depart="81" />
<vehicle id="Car_268" type="Car" route="route_22" depart="81" />
<vehicle id="Car_269" type="Auto" route="route_10" depart="83" />
<vehicle id="Bus_270" type="Car" route="route_19" depart="83" />
<vehicle id="MotorCycle_271" type="Car" route="route_21" depart="83" />
<vehicle id="Car_272" type="MotorCycle" route="route_22" depart="83" />
<vehicle id="Bus_273" type="MotorCycle" route="route_23" depart="83" />
<vehicle id="Car_274" type="MotorCycle" route="route_5" depart="84" />
<vehicle id="Bus_275" type="Auto" route="route_19" depart="84" />
<vehicle id="Bus_276" type="MotorCycle" route="route_19" depart="84" />
<vehicle id="Bus_277" type="Car" route="route_19" depart="84" />
<vehicle id="Car_278" type="MotorCycle" route="route_20" depart="84" />
<vehicle id="Car_279" type="Car" route="route_20" depart="84" />
<vehicle id="Bus_280" type="MotorCycle" route="route_21" depart="85" />
<vehicle id="Car_281" type="MotorCycle" route="route_24" depart="85" />
<vehicle id="Car_282" type="MotorCycle" route="route_8" depart="86" />
<vehicle id="Bus_283" type="MotorCycle" route="route_21" depart="86" />
<vehicle id="Bus_284" type="MotorCycle" route="route_23" depart="86" />
<vehicle id="Bus_285" type="Car" route="route_23" depart="86" />
<vehicle id="Auto_286" type="MotorCycle" route="route_20" depart="87" />
<vehicle id="Bus_287" type="MotorCycle" route="route_21" depart="87" />
<vehicle id="Auto_288" type="MotorCycle" route="route_23" depart="87" />
<vehicle id="Auto_289" type="MotorCycle" route="route_5" depart="88" />
<vehicle id="MotorCycle_290" type="MotorCycle" route="route_21" depart="88" />
<vehicle id="MotorCycle_291" type="Car" route="route_21" depart="88" />
<vehicle id="Car_292" type="MotorCycle" route="route_22" depart="88" />
<vehicle id="Bus_293" type="Bus" route="route_23" depart="88" />
<vehicle id="Bus_294" type="MotorCycle" route="route_23" depart="88" />
<vehicle id="Bus_295" type="Car" route="route_23" depart="88" />
<vehicle id="Auto_296" type="MotorCycle" route="route_24" depart="88" />
<vehicle id="Car_297" type="MotorCycle" route="route_21" depart="89" />
<vehicle id="Bus_298" type="MotorCycle" route="route_21" depart="90" />
<vehicle id="Car_299" type="MotorCycle" route="route_22" depart="90" />
<vehicle id="Car_300" type="Car" route="route_22" depart="90" />
<vehicle id="Bus_301" type="MotorCycle" route="route_24" depart="90" />
<vehicle id="Auto_302" type="MotorCycle" route="route_4" depart="91" />
<vehicle id="Auto_303" type="MotorCycle" route="route_5" depart="91" />
<vehicle id="Auto_304" type="Car" route="route_5" depart="91" />
<vehicle id="Auto_305" type="MotorCycle" route="route_19" depart="91" />
<vehicle id="Car_306" type="MotorCycle" route="route_21" depart="91" />
<vehicle id="Car_307" type="MotorCycle" route="route_22" depart="91" />
<vehicle id="Bus_308" type="MotorCycle" route="route_21" depart="92" />
<vehicle id="Auto_309" type="MotorCycle" route="route_22" depart="92" />
<vehicle id="MotorCycle_310" type="MotorCycle" route="route_23" depart="92" />
<vehicle id="MotorCycle_311" type="MotorCycle" route="route_19" depart="93" />
<vehicle id="MotorCycle_312" type="Car" route="route_19" depart="93" />
<vehicle id="Bus_313" type="Auto" route="route_3" depart="94" />
<vehicle id="Bus_314" type="MotorCycle" route="route_3" depart="94" />
<vehicle id="Auto_315" type="MotorCycle" route="route_21" depart="95" />
<vehicle id="Car_316" type="MotorCycle" route="route_24" depart="95" />
<vehicle id="Car_317" type="MotorCycle" route="route_9" depart="96" />
<vehicle id="Car_318" type="Car" route="route_9" depart="96" />
<vehicle id="Bus_319" type="MotorCycle" route="route_21" depart="96" />
<vehicle id="Bus_320" type="Car" route="route_21" depart="96" />
<vehicle id="MotorCycle_321" type="MotorCycle" route="route_5" depart="97" />
<vehicle id="MotorCycle_322" type="Car" route="route_5" depart="97" />
<vehicle id="Bus_323" type="Bus" route="route_19" depart="97" />
<vehicle id="Bus_324" type="MotorCycle" route="route_19" depart="97" />
<vehicle id="MotorCycle_325" type="MotorCycle" route="route_22" depart="97" />
<vehicle id="Car_326" type="MotorCycle" route="route_3" depart="98" />
<vehicle id="Bus_327" type="MotorCycle" route="route_13" depart="98" />
<vehicle id="MotorCycle_328" type="MotorCycle" route="route_18" depart="98" />
<vehicle id="Auto_329" type="MotorCycle" route="route_19" depart="98" />
<vehicle id="Auto_330" type="MotorCycle" route="route_22" depart="98" />
<vehicle id="Auto_331" type="Car" route="route_22" depart="98" />
<vehicle id="Auto_332" type="MotorCycle" route="route_6" depart="99" />
<vehicle id="Bus_333" type="MotorCycle" route="route_14" depart="99" />
<vehicle id="Car_334" type="MotorCycle" route="route_21" depart="99" />
<vehicle id="Auto_335" type="MotorCycle" route="route_20" depart="100" />
<vehicle id="Car_336" type="MotorCycle" route="route_21" depart="100" />
<vehicle id="MotorCycle_337" type="MotorCycle" route="route_23" depart="100" />
<vehicle id="MotorCycle_338" type="MotorCycle" route="route_19" depart="101" />
<vehicle id="MotorCycle_339" type="Car" route="route_19" depart="101" />
<vehicle id="Bus_340" type="MotorCycle" route="route_22" depart="101" />
<vehicle id="MotorCycle_341" type="MotorCycle" route="route_11" depart="102" />
<vehicle id="MotorCycle_342" type="Car" route="route_11" depart="102" />
<vehicle id="Car_343" type="MotorCycle" route="route_22" depart="102" />
<vehicle id="Auto_344" type="MotorCycle" route="route_24" depart="102" />
<vehicle id="Auto_345" type="MotorCycle" route="route_2" depart="103" />
<vehicle id="Auto_346" type="MotorCycle" route="route_3" depart="103" />
<vehicle id="Auto_347" type="Car" route="route_3" depart="103" />
<vehicle id="Car_348" type="MotorCycle" route="route_20" depart="103" />
<vehicle id="Car_349" type="MotorCycle" route="route_20" depart="104" />
<vehicle id="Car_350" type="MotorCycle" route="route_21" depart="104" />
<vehicle id="Car_351" type="Car" route="route_21" depart="104" />
<vehicle id="Car_352" type="Car" route="route_22" depart="104" />
<vehicle id="MotorCycle_353" type="MotorCycle" route="route_3" depart="106" />
<vehicle id="MotorCycle_354" type="Car" route="route_3" depart="106" />
<vehicle id="Car_355" type="Car" route="route_11" depart="106" />
<vehicle id="Auto_356" type="MotorCycle" route="route_21" depart="106" />
<vehicle id="Car_357" type="MotorCycle" route="route_2" depart="107" />
<vehicle id="MotorCycle_358" type="MotorCycle" route="route_12" depart="107" />
<vehicle id="MotorCycle_359" type="MotorCycle" route="route_20" depart="107" />
<vehicle id="MotorCycle_360" type="MotorCycle" route="route_22" depart="107" />
<vehicle id="MotorCycle_361" type="Car" route="route_22" depart="107" />
<vehicle id="Bus_362" type="Car" route="route_9" depart="108" />
<vehicle id="MotorCycle_363" type="MotorCycle" route="route_24" depart="108" />
<vehicle id="MotorCycle_364" type="Car" route="route_21" depart="109" />
<vehicle id="Auto_365" type="MotorCycle" route="route_22" depart="109" />
<vehicle id="Auto_366" type="MotorCycle" route="route_23" depart="109" />
<vehicle id="Bus_367" type="Car" route="route_7" depart="110" />
<vehicle id="Bus_368" type="Car" route="route_21" depart="110" />
<vehicle id="Bus_369" type="MotorCycle" route="route_24" depart="110" />
<vehicle id="Bus_370" type="Car" route="route_24" depart="110" />
<vehicle id="MotorCycle_371" type="MotorCycle" route="route_3" depart="111" />
<vehicle id="Car_372" type="MotorCycle" route="route_12" depart="111" />
<vehicle id="Car_373" type="Car" route="route_12" depart="111" />
<vehicle id="Bus_374" type="MotorCycle" route="route_20" depart="111" />
<vehicle id="Bus_375" type="MotorCycle" route="route_21" depart="111" />
<vehicle id="Car_376" type="Auto" route="route_21" depart="112" />
<vehicle id="Car_377" type="MotorCycle" route="route_21" depart="112" />