<routes>
<vType id="Bus" accel="0.6" decel="3.5" sigma="0.5" length="10.1" minGap="1.0" maxSpeed="16.67" carFollowModel="Wiedemann" guiShape="bus" width="2.45" latAlignment="left" laneChangeModel="SL2015" lcStrategic="0.5" lcCooperative="0.0"/>
<vType id="Auto" accel="0.7" decel="4.5" sigma="0.5" length="2.6" minGap="0.3" maxSpeed="16" carFollowModel="Wiedemann" guiShape="passenger/sedan" width="1.25" latAlignment="left" laneChangeModel="SL2015" lcStrategic="0.5" lcCooperative="0.0" />
<vType id="MotorCycle" accel="0.9" decel="3.5" sigma="0.5" length="1.85" minGap="0.15"  carFollowModel="Wiedemann" maxSpeed="17" guiShape="motorcycle" width="0.7" latAlignment="left" laneChangeModel="SL2015" lcStrategic="0.5" lcCooperative="0.0"/>
<vType id="Car" accel="0.8" decel="4.5" sigma="0.5" length="3.6" minGap="0.5" maxSpeed="40" carFollowModel="Wiedemann" guiShape="passenger" width="1.5" latAlignment="left" laneChangeModel="SL2015" lcStrategic="0.5" lcCooperative="0.0"/>
<vType id="emergency" accel="2.8" decel="5.5" sigma="0.5" length="3.6" minGap="0.5" maxSpeed="120.6" carFollowModel="Wiedemann" guiShape="emergency" width="1.5" latAlignment="left" laneChangeModel="SL2015" lcStrategic="0.5" lcCooperative="0.0" vClass="emergency" speedFactor="1.9" jmDriveAfterRedTime="300" jmDriveAfterRedSpeed="5.56">
<param key="has.bluelight.device" value="true"/>
<param key="has.fcd.device" value="true"/> 
</vType>
<route id="route_0" edges="1i 52i gneE0 gneE2" />
<route id="route_1" edges="-gneE2 -gneE0 52o 2i 1o" />
        <route id="route_2" edges="4i 3o" />
        <route id="route_3" edges="3i 4o" />
        <route id="route_4" edges="-gneE1 gneE3" /> 
        <route id="route_5" edges="4i 1o" />
        <route id="route_6" edges="4i 2o 52i gneE0 gneE1" />
        <route id="route_7" edges="2i 4o" />
        <route id="route_8" edges="2i 3o" />
        <route id="route_9" edges="-gneE1 gneE3" />
        <route id="route_10" edges="3i 2o 52i gneE0 gneE3" />
        <route id="route_11" edges="3i 1o" />
        <route id="route_12" edges="-gneE1 -gneE0 52o 2i 4o" />
        <route id="route_13" edges="-gneE1 gneE2" />
        <route id="route_14" edges="-gneE2 gneE1" />
        <route id="route_15" edges="-gneE2 gneE3" />
        <route id="route_16" edges="-gneE3 -gneE0 52o 2i 3o" />
        <route id="route_17" edges="-gneE3 gneE2" />
        <route id="route_18" edges="gneE0 gneE3" />
        <route id="route_19" edges="gneE0 gneE1" />
        <route id="route_20" edges="1i 2o 52i gneE0 gneE2 -gneE4 gneE5" />
        <route id="route_21" edges="-gneE5 gneE4 -gneE2 -gneE0 52o 2i 1o" />
        <route id="route_22" edges="-gneE5 gneE4 -gneE2 -gneE0 52o 2i 3o" />
        <route id="route_23" edges="1i 2o 52i gneE0 gneE2 -gneE4 gneE7" />

	<route id="route_24" edges="gneE0"/>
<vehicle id="emergency_0" type="emergency" route="route_11" depart="0" />
<vehicle id="Bus_0" type="Bus" route="route_11" depart="0" />
<vehicle id="Car_0" type="Car" route="route_3" depart="0" />
<vehicle id="Bus_1" type="MotorCycle" route="route_6" depart="1" />
<vehicle id="Auto_2" type="MotorCycle" route="route_21" depart="1" />
<vehicle id="Auto_3" type="Car" route="route_21" depart="1" />
<vehicle id="MotorCycle_4" type="MotorCycle" route="route_22" depart="1" />
<vehicle id="MotorCycle_5" type="MotorCycle" route="route_24" depart="1" />
<vehicle id="Car_6" type="MotorCycle" route="route_16" depart="2" />
<vehicle id="Bus_7" type="MotorCycle" route="route_21" depart="2" />
<vehicle id="Bus_8" type="Car" route="route_21" depart="2" />
<vehicle id="Car_9" type="MotorCycle" route="route_23" depart="2" />
<vehicle id="Auto_10" type="MotorCycle" route="route_24" depart="2" />
<vehicle id="Car_11" type="Auto" route="route_21" depart="3" />
<vehicle id="Car_12" type="MotorCycle" route="route_21" depart="3" />
<vehicle id="Car_13" type="Car" route="route_21" depart="3" />
<vehicle id="Car_14" type="MotorCycle" route="route_22" depart="3" />
<vehicle id="Auto_15" type="MotorCycle" route="route_24" depart="3" />
<vehicle id="MotorCycle_16" type="MotorCycle" route="route_15" depart="4" />
<vehicle id="Bus_17" type="Car" route="route_20" depart="4" />
<vehicle id="Bus_18" type="MotorCycle" route="route_21" depart="4" />
<vehicle id="Car_19" type="MotorCycle" route="route_21" depart="5" />
<vehicle id="Bus_20" type="MotorCycle" route="route_22" depart="5" />
<vehicle id="Bus_21" type="Auto" route="route_21" depart="6" />
<vehicle id="Car_22" type="MotorCycle" route="route_22" depart="6" />
<vehicle id="Car_23" type="Car" route="route_22" depart="6" />
<vehicle id="Auto_24" type="MotorCycle" route="route_24" depart="6" />
<vehicle id="Auto_25" type="Car" route="route_24" depart="6" />
<vehicle id="MotorCycle_26" type="Car" route="route_23" depart="7" />
<vehicle id="Car_27" type="MotorCycle" route="route_21" depart="8" />
<vehicle id="Car_28" type="MotorCycle" route="route_22" depart="8" />
<vehicle id="Bus_29" type="MotorCycle" route="route_3" depart="9" />
<vehicle id="Bus_30" type="Car" route="route_3" depart="9" />
<vehicle id="MotorCycle_31" type="MotorCycle" route="route_23" depart="9" />
<vehicle id="Auto_32" type="Car" route="route_24" depart="9" />
<vehicle id="MotorCycle_33" type="MotorCycle" route="route_3" depart="10" />
<vehicle id="MotorCycle_34" type="MotorCycle" route="route_9" depart="10" />
<vehicle id="Auto_35" type="Car" route="route_20" depart="11" />
<vehicle id="Bus_36" type="Car" route="route_21" depart="11" />
<vehicle id="Car_37" type="MotorCycle" route="route_22" depart="11" />
<vehicle id="Auto_38" type="MotorCycle" route="route_23" depart="11" />
<vehicle id="Auto_39" type="Car" route="route_23" depart="11" />
<vehicle id="MotorCycle_40" type="MotorCycle" route="route_21" depart="12" />
<vehicle id="MotorCycle_41" type="Car" route="route_21" depart="12" />
<vehicle id="MotorCycle_42" type="Auto" route="route_3" depart="13" />
<vehicle id="MotorCycle_43" type="MotorCycle" route="route_3" depart="13" />
<vehicle id="MotorCycle_44" type="MotorCycle" route="route_21" depart="13" />
<vehicle id="Auto_45" type="Auto" route="route_6" depart="14" />
<vehicle id="Auto_46" type="MotorCycle" route="route_6" depart="14" />
<vehicle id="Auto_47" type="Car" route="route_6" depart="14" />
<vehicle id="MotorCycle_48" type="MotorCycle" route="route_20" depart="14" />
<vehicle id="MotorCycle_49" type="Auto" route="route_21" depart="14" />
<vehicle id="MotorCycle_50" type="Car" route="route_21" depart="14" />
<vehicle id="Auto_51" type="MotorCycle" route="route_5" depart="15" />
<vehicle id="Auto_52" type="Car" route="route_5" depart="15" />
<vehicle id="Car_53" type="MotorCycle" route="route_21" depart="15" />
<vehicle id="Car_54" type="MotorCycle" route="route_22" depart="15" />
<vehicle id="Car_55" type="MotorCycle" route="route_24" depart="15" />
<vehicle id="MotorCycle_56" type="MotorCycle" route="route_13" depart="16" />
<vehicle id="MotorCycle_57" type="MotorCycle" route="route_21" depart="16" />
<vehicle id="MotorCycle_58" type="Car" route="route_21" depart="16" />
<vehicle id="Bus_59" type="MotorCycle" route="route_22" depart="16" />
<vehicle id="Bus_60" type="Car" route="route_22" depart="16" />
<vehicle id="Car_61" type="MotorCycle" route="route_23" depart="16" />
<vehicle id="Car_62" type="Car" route="route_23" depart="16" />
<vehicle id="Car_63" type="MotorCycle" route="route_5" depart="17" />
<vehicle id="Auto_64" type="MotorCycle" route="route_20" depart="17" />
<vehicle id="MotorCycle_65" type="MotorCycle" route="route_24" depart="17" />
<vehicle id="Auto_66" type="MotorCycle" route="route_5" depart="18" />
<vehicle id="Bus_67" type="MotorCycle" route="route_21" depart="18" />
<vehicle id="MotorCycle_68" type="MotorCycle" route="route_22" depart="18" />
<vehicle id="Auto_69" type="MotorCycle" route="route_11" depart="19" />
<vehicle id="Car_70" type="MotorCycle" route="route_6" depart="20" />
<vehicle id="Auto_71" type="MotorCycle" route="route_7" depart="20" />
<vehicle id="MotorCycle_72" type="MotorCycle" route="route_23" depart="20" />
<vehicle id="MotorCycle_73" type="Car" route="route_23" depart="20" />
<vehicle id="Car_74" type="MotorCycle" route="route_2" depart="21" />
<vehicle id="Auto_75" type="MotorCycle" route="route_19" depart="21" />
<vehicle id="Bus_76" type="MotorCycle" route="route_21" depart="21" />
<vehicle id="MotorCycle_77" type="Auto" route="route_21" depart="22" />
<vehicle id="MotorCycle_78" type="MotorCycle" route="route_21" depart="22" />
<vehicle id="MotorCycle_79" type="MotorCycle" route="route_23" depart="22" />
<vehicle id="Bus_80" type="MotorCycle" route="route_21" depart="25" />
<vehicle id="Auto_81" type="MotorCycle" route="route_23" depart="25" />
<vehicle id="Bus_82" type="MotorCycle" route="route_8" depart="26" />
<vehicle id="MotorCycle_83" type="MotorCycle" route="route_20" depart="27" />
<vehicle id="Auto_84" type="MotorCycle" route="route_22" depart="27" />
<vehicle id="Bus_85" type="MotorCycle" route="route_2" depart="28" />
<vehicle id="Car_86" type="MotorCycle" route="route_21" depart="28" />
<vehicle id="Car_87" type="Car" route="route_21" depart="28" />
<vehicle id="Bus_88" type="MotorCycle" route="route_22" depart="28" />
<vehicle id="MotorCycle_89" type="MotorCycle" route="route_23" depart="28" />
<vehicle id="Auto_90" type="MotorCycle" route="route_21" depart="29" />
<vehicle id="MotorCycle_91" type="MotorCycle" route="route_22" depart="29" />
<vehicle id="Bus_92" type="MotorCycle" route="route_23" depart="29" />
<vehicle id="Bus_93" type="Car" route="route_23" depart="29" />
<vehicle id="Bus_94" type="Car" route="route_24" depart="29" />
<vehicle id="Car_95" type="MotorCycle" route="route_19" depart="30" />
<vehicle id="Car_96" type="Car" route="route_19" depart="30" />
<vehicle id="Auto_97" type="MotorCycle" route="route_20" depart="30" />
<vehicle id="Auto_98" type="MotorCycle" route="route_21" depart="30" />
<vehicle id="Bus_99" type="Car" route="route_20" depart="31" />
<vehicle id="Auto_100" type="MotorCycle" route="route_24" depart="31" />
<vehicle id="MotorCycle_101" type="MotorCycle" route="route_22" depart="32" />
<vehicle id="MotorCycle_102" type="Car" route="route_19" depart="33" />
<vehicle id="Auto_103" type="MotorCycle" route="route_21" depart="33" />
<vehicle id="MotorCycle_104" type="MotorCycle" route="route_22" depart="33" />
<vehicle id="MotorCycle_105" type="Car" route="route_22" depart="33" />
<vehicle id="MotorCycle_106" type="MotorCycle" route="route_24" depart="33" />
<vehicle id="Car_107" type="MotorCycle" route="route_20" depart="34" />
<vehicle id="MotorCycle_108" type="MotorCycle" route="route_21" depart="35" />
<vehicle id="Auto_109" type="MotorCycle" route="route_22" depart="35" />
<vehicle id="Auto_110" type="Auto" route="route_12" depart="36" />
<vehicle id="Auto_111" type="MotorCycle" route="route_12" depart="36" />
<vehicle id="MotorCycle_112" type="MotorCycle" route="route_22" depart="36" />
<vehicle id="Car_113" type="MotorCycle" route="route_3" depart="38" />
<vehicle id="Car_114" type="Car" route="route_21" depart="39" />
<vehicle id="Car_115" type="MotorCycle" route="route_21" depart="40" />
<vehicle id="Auto_116" type="Auto" route="route_22" depart="40" />
<vehicle id="Auto_117" type="MotorCycle" route="route_22" depart="40" />
<vehicle id="Car_118" type="MotorCycle" route="route_2" depart="41" />
<vehicle id="Bus_119" type="MotorCycle" route="route_4" depart="42" />
<vehicle id="MotorCycle_120" type="MotorCycle" route="route_6" depart="42" />
<vehicle id="MotorCycle_121" type="Car" route="route_6" depart="42" />
<vehicle id="Car_122" type="MotorCycle" route="route_20" depart="42" />
<vehicle id="Car_123" type="MotorCycle" route="route_5" depart="43" />
<vehicle id="Car_124" type="MotorCycle" route="route_21" depart="43" />
<vehicle id="MotorCycle_125" type="Car" route="route_24" depart="43" />
<vehicle id="Auto_126" type="Auto" route="route_20" depart="44" />
<vehicle id="Auto_127" type="MotorCycle" route="route_20" depart="44" />
<vehicle id="Car_128" type="MotorCycle" route="route_21" depart="44" />
<vehicle id="MotorCycle_129" type="MotorCycle" route="route_21" depart="45" />
<vehicle id="Bus_130" type="MotorCycle" route="route_24" depart="45" />
<vehicle id="Auto_131" type="MotorCycle" route="route_4" depart="46" />
<vehicle id="Bus_132" type="MotorCycle" route="route_21" depart="46" />
<vehicle id="Bus_133" type="MotorCycle" route="route_22" depart="46" />
<vehicle id="Car_134" type="MotorCycle" route="route_20" depart="47" />
<vehicle id="Car_135" type="MotorCycle" route="route_21" depart="47" />
<vehicle id="Car_136" type="Car" route="route_21" depart="47" />
<vehicle id="Car_137" type="MotorCycle" route="route_23" depart="47" />
<vehicle id="MotorCycle_138" type="Auto" route="route_13" depart="48" />
<vehicle id="MotorCycle_139" type="MotorCycle" route="route_13" depart="48" />
<vehicle id="MotorCycle_140" type="Car" route="route_21" depart="48" />
<vehicle id="MotorCycle_141" type="MotorCycle" route="route_23" depart="48" />
<vehicle id="MotorCycle_142" type="Auto" route="route_24" depart="48" />
<vehicle id="MotorCycle_143" type="MotorCycle" route="route_24" depart="48" />
<vehicle id="Car_144" type="MotorCycle" route="route_21" depart="49" />
<vehicle id="Auto_145" type="MotorCycle" route="route_22" depart="49" />
<vehicle id="Car_146" type="MotorCycle" route="route_18" depart="50" />
<vehicle id="Bus_147" type="MotorCycle" route="route_22" depart="51" />
<vehicle id="Auto_148" type="MotorCycle" route="route_3" depart="52" />
<vehicle id="Auto_149" type="Car" route="route_3" depart="52" />
<vehicle id="Auto_150" type="MotorCycle" route="route_21" depart="52" />
<vehicle id="MotorCycle_151" type="MotorCycle" route="route_22" depart="52" />
<vehicle id="Bus_152" type="MotorCycle" route="route_19" depart="53" />
<vehicle id="MotorCycle_153" type="MotorCycle" route="route_21" depart="54" />
<vehicle id="Bus_154" type="Auto" route="route_22" depart="54" />
<vehicle id="Bus_155" type="MotorCycle" route="route_22" depart="54" />
<vehicle id="Auto_156" type="MotorCycle" route="route_23" depart="54" />
<vehicle id="Auto_157" type="MotorCycle" route="route_3" depart="55" />
<vehicle id="Auto_158" type="MotorCycle" route="route_9" depart="55" />
<vehicle id="MotorCycle_159" type="MotorCycle" route="route_12" depart="55" />
<vehicle id="MotorCycle_160" type="MotorCycle" route="route_20" depart="55" />
<vehicle id="Bus_161" type="MotorCycle" route="route_21" depart="55" />
<vehicle id="Auto_162" type="MotorCycle" route="route_22" depart="55" />
<vehicle id="Auto_163" type="MotorCycle" route="route_24" depart="55" />
<vehicle id="Auto_164" type="Car" route="route_24" depart="55" />
<vehicle id="Bus_165" type="MotorCycle" route="route_20" depart="56" />
<vehicle id="Car_166" type="Car" route="route_22" depart="56" />
<vehicle id="Auto_167" type="MotorCycle" route="route_19" depart="57" />
<vehicle id="Auto_168" type="MotorCycle" route="route_24" depart="57" />
<vehicle id="Car_169" type="MotorCycle" route="route_23" depart="58" />
<vehicle id="Bus_170" type="Bus" route="route_4" depart="59" />
<vehicle id="Bus_171" type="MotorCycle" route="route_4" depart="59" />
<vehicle id="Auto_172" type="MotorCycle" route="route_20" depart="59" />
<vehicle id="Auto_173" type="Car" route="route_20" depart="59" />
<vehicle id="Car_174" type="MotorCycle" route="route_22" depart="59" />
<vehicle id="Auto_175" type="MotorCycle" route="route_23" depart="59" />
<vehicle id="Auto_176" type="MotorCycle" route="route_24" depart="59" />
<vehicle id="Auto_177" type="Car" route="route_24" depart="59" />
<vehicle id="Auto_178" type="MotorCycle" route="route_7" depart="60" />
<vehicle id="MotorCycle_179" type="MotorCycle" route="route_21" depart="60" />
<vehicle id="MotorCycle_180" type="MotorCycle" route="route_22" depart="61" />
<vehicle id="Bus_181" type="MotorCycle" route="route_8" depart="62" />
<vehicle id="MotorCycle_182" type="MotorCycle" route="route_18" depart="62" />
<vehicle id="Car_183" type="MotorCycle" route="route_19" depart="62" />
<vehicle id="Car_184" type="MotorCycle" route="route_20" depart="62" />
<vehicle id="MotorCycle_185" type="MotorCycle" route="route_22" depart="62" />
<vehicle id="Car_186" type="MotorCycle" route="route_24" depart="63" />
<vehicle id="Bus_187" type="Auto" route="route_1" depart="65" />
<vehicle id="Bus_188" type="MotorCycle" route="route_1" depart="65" />
<vehicle id="MotorCycle_189" type="MotorCycle" route="route_22" depart="65" />
<vehicle id="Car_190" type="MotorCycle" route="route_22" depart="66" />
<vehicle id="MotorCycle_191" type="MotorCycle" route="route_22" depart="67" />
<vehicle id="Auto_192" type="MotorCycle" route="route_23" depart="67" />
<vehicle id="Bus_193" type="Bus" route="route_12" depart="68" />
<vehicle id="Bus_194" type="MotorCycle" route="route_12" depart="68" />
<vehicle id="Car_195" type="MotorCycle" route="route_21" depart="68" />
<vehicle id="Car_196" type="Car" route="route_21" depart="68" />
<vehicle id="Bus_197" type="MotorCycle" route="route_23" depart="68" />
<vehicle id="MotorCycle_198" type="Auto" route="route_4" depart="69" />
<vehicle id="MotorCycle_199" type="MotorCycle" route="route_4" depart="69" />
<vehicle id="MotorCycle_200" type="Car" route="route_4" depart="69" />
<vehicle id="MotorCycle_201" type="MotorCycle" route="route_21" depart="69" />
<vehicle id="Auto_202" type="MotorCycle" route="route_22" depart="69" />
<vehicle id="Bus_203" type="MotorCycle" route="route_24" depart="69" />
<vehicle id="Car_204" type="Car" route="route_2" depart="70" />
<vehicle id="MotorCycle_205" type="Auto" route="route_10" depart="70" />
<vehicle id="Car_206" type="MotorCycle" route="route_22" depart="70" />
<vehicle id="Auto_207" type="Bus" route="route_19" depart="71" />
<vehicle id="Car_208" type="MotorCycle" route="route_23" depart="71" />
<vehicle id="Bus_209" type="MotorCycle" route="route_24" depart="71" />
<vehicle id="Bus_210" type="MotorCycle" route="route_3" depart="72" />
<vehicle id="Bus_211" type="Car" route="route_3" depart="72" />
<vehicle id="Bus_212" type="MotorCycle" route="route_4" depart="72" />
<vehicle id="Auto_213" type="Auto" route="route_21" depart="72" />
<vehicle id="Auto_214" type="MotorCycle" route="route_21" depart="72" />
<vehicle id="Car_215" type="MotorCycle" route="route_23" depart="72" />
<vehicle id="Auto_216" type="MotorCycle" route="route_19" depart="73" />
<vehicle id="Bus_217" type="MotorCycle" route="route_23" depart="73" />
<vehicle id="Bus_218" type="MotorCycle" route="route_2" depart="74" />
<vehicle id="Bus_219" type="Car" route="route_2" depart="74" />
<vehicle id="Auto_220" type="MotorCycle" route="route_21" depart="74" />
<vehicle id="MotorCycle_221" type="Car" route="route_22" depart="74" />
<vehicle id="MotorCycle_222" type="MotorCycle" route="route_5" depart="75" />
<vehicle id="Car_223" type="MotorCycle" route="route_2" depart="76" />
<vehicle id="Auto_224" type="MotorCycle" route="route_19" depart="76" />
<vehicle id="Auto_225" type="Car" route="route_19" depart="76" />
<vehicle id="MotorCycle_226" type="MotorCycle" route="route_20" depart="76" />
<vehicle id="Car_227" type="MotorCycle" route="route_21" depart="76" />
<vehicle id="Car_228" type="Car" route="route_21" depart="76" />
<vehicle id="Bus_229" type="MotorCycle" route="route_22" depart="76" />
<vehicle id="Bus_230" type="Car" route="route_22" depart="76" />
<vehicle id="Car_231" type="MotorCycle" route="route_23" depart="76" />
<vehicle id="Bus_232" type="Auto" route="route_9" depart="77" />
<vehicle id="Bus_233" type="MotorCycle" route="route_9" depart="77" />
<vehicle id="Bus_234" type="Car" route="route_9" depart="77" />
<vehicle id="Bus_235" type="MotorCycle" route="route_22" depart="77" />
<vehicle id="MotorCycle_236" type="MotorCycle" route="route_24" depart="77" />
<vehicle id="MotorCycle_237" type="MotorCycle" route="route_20" depart="78" />
<vehicle id="MotorCycle_238" type="MotorCycle" route="route_21" depart="78" />
<vehicle id="MotorCycle_239" type="MotorCycle" route="route_22" depart="79" />
<vehicle id="Bus_240" type="MotorCycle" route="route_23" depart="79" />
<vehicle id="MotorCycle_241" type="MotorCycle" route="route_4" depart="80" />
<vehicle id="MotorCycle_242" type="MotorCycle" route="route_7" depart="80" />
<vehicle id="MotorCycle_243" type="Car" route="route_7" depart="80" />
<vehicle id="Bus_244" type="Car" route="route_19" depart="80" />
<vehicle id="Bus_245" type="MotorCycle" route="route_21" depart="80" />
<vehicle id="Auto_246" type="MotorCycle" route="route_4" depart="81" />
<vehicle id="Car_247" type="MotorCycle" route="route_21" depart="81" />
<vehicle id="Bus_248" type="MotorCycle" route="route_23" depart="81" />
<vehicle id="MotorCycle_249" type="MotorCycle" route="route_3" depart="82" />
<vehicle id="Car_250" type="MotorCycle" route="route_11" depart="82" />
<vehicle id="Auto_251" type="MotorCycle" route="route_23" depart="82" />
<vehicle id="Auto_252" type="Car" route="route_23" depart="82" />
<vehicle id="MotorCycle_253" type="MotorCycle" route="route_14" depart="83" />
<vehicle id="Car_254" type="MotorCycle" route="route_22" depart="83" />
<vehicle id="Car_255" type="Car" route="route_22" depart="83" />
<vehicle id="Car_256" type="MotorCycle" route="route_24" depart="83" />
<vehicle id="Car_257" type="Car" route="route_24" depart="83" />
<vehicle id="Bus_258" type="MotorCycle" route="route_9" depart="84" />
<vehicle id="Bus_259" type="Car" route="route_9" depart="84" />
<vehicle id="MotorCycle_260" type="MotorCycle" route="route_21" depart="84" />
<vehicle id="MotorCycle_261" type="Car" route="route_21" depart="84" />
<vehicle id="Car_262" type="MotorCycle" route="route_23" depart="84" />
<vehicle id="Car_263" type="Car" route="route_23" depart="84" />
<vehicle id="Auto_264" type="Car" route="route_21" depart="85" />
<vehicle id="Bus_265" type="MotorCycle" route="route_22" depart="85" />
<vehicle id="Auto_266" type="MotorCycle" route="route_23" depart="85" />
<vehicle id="MotorCycle_267" type="MotorCycle" route="route_17" depart="86" />
<vehicle id="MotorCycle_268" type="MotorCycle" route="route_19" depart="86" />
<vehicle id="MotorCycle_269" type="Car" route="route_19" depart="86" />
<vehicle id="MotorCycle_270" type="MotorCycle" route="route_21" depart="86" />
<vehicle id="Bus_271" type="MotorCycle" route="route_24" depart="86" />
<vehicle id="Auto_272" type="MotorCycle" route="route_21" depart="87" />
<vehicle id="Car_273" type="MotorCycle" route="route_23" depart="88" />
<vehicle id="MotorCycle_274" type="MotorCycle" route="route_9" depart="90" />
<vehicle id="Auto_275" type="MotorCycle" route="route_19" depart="90" />
<vehicle id="Auto_276" type="MotorCycle" route="route_23" depart="90" />
<vehicle id="Auto_277" type="MotorCycle" route="route_24" depart="90" />
<vehicle id="Auto_278" type="MotorCycle" route="route_3" depart="92" />
<vehicle id="MotorCycle_279" type="MotorCycle" route="route_19" depart="92" />
<vehicle id="Auto_280" type="Auto" route="route_24" depart="92" />
<vehicle id="MotorCycle_281" type="MotorCycle" route="route_21" depart="93" />
<vehicle id="Bus_282" type="Auto" route="route_17" depart="94" />
<vehicle id="Bus_283" type="MotorCycle" route="route_17" depart="94" />
<vehicle id="Bus_284" type="Car" route="route_17" depart="94" />
<vehicle id="Car_285" type="MotorCycle" route="route_21" depart="94" />
<vehicle id="Bus_286" type="MotorCycle" route="route_1" depart="95" />
<vehicle id="Bus_287" type="Car" route="route_1" depart="95" />
<vehicle id="Bus_288" type="MotorCycle" route="route_21" depart="95" />
<vehicle id="Bus_289" type="Car" route="route_21" depart="95" />
<vehicle id="Bus_290" type="Car" route="route_23" depart="95" />
<vehicle id="Car_291" type="Auto" route="route_22" depart="96" />
<vehicle id="Car_292" type="MotorCycle" route="route_7" depart="97" />
<vehicle id="Auto_293" type="MotorCycle" route="route_10" depart="97" />
<vehicle id="Auto_294" type="MotorCycle" route="route_17" depart="97" />
<vehicle id="Bus_295" type="MotorCycle" route="route_4" depart="98" />
<vehicle id="Bus_296" type="MotorCycle" route="route_11" depart="98" />
<vehicle id="MotorCycle_297" type="Auto" route="route_17" depart="98" />
<vehicle id="MotorCycle_298" type="Car" route="route_17" depart="98" />
<vehicle id="Bus_299" type="MotorCycle" route="route_18" depart="99" />
<vehicle id="Bus_300" type="MotorCycle" route="route_21" depart="99" />
<vehicle id="Bus_301" type="MotorCycle" route="route_22" depart="100" />
<vehicle id="Bus_302" type="MotorCycle" route="route_22" depart="101" />
<vehicle id="Auto_303" type="MotorCycle" route="route_23" depart="101" />
<vehicle id="MotorCycle_304" type="MotorCycle" route="route_20" depart="102" />
<vehicle id="MotorCycle_305" type="Car" route="route_20" depart="102" />
<vehicle id="Car_306" type="MotorCycle" route="route_21" depart="102" />
<vehicle id="MotorCycle_307" type="Auto" route="route_4" depart="103" />
<vehicle id="MotorCycle_308" type="MotorCycle" route="route_4" depart="103" />
<vehicle id="Bus_309" type="MotorCycle" route="route_21" depart="103" />
<vehicle id="MotorCycle_310" type="Bus" route="route_22" depart="103" />
<vehicle id="MotorCycle_311" type="MotorCycle" route="route_23" depart="103" />
<vehicle id="Car_312" type="MotorCycle" route="route_15" depart="104" />
<vehicle id="Bus_313" type="MotorCycle" route="route_19" depart="104" />
<vehicle id="Auto_314" type="MotorCycle" route="route_23" depart="104" />
<vehicle id="Bus_315" type="MotorCycle" route="route_2" depart="105" />
<vehicle id="Auto_316" type="MotorCycle" route="route_21" depart="105" />
<vehicle id="Car_317" type="MotorCycle" route="route_22" depart="105" />
<vehicle id="Bus_318" type="MotorCycle" route="route_20" depart="106" />
<vehicle id="Auto_319" type="MotorCycle" route="route_22" depart="107" />
<vehicle id="Car_320" type="Car" route="route_2" depart="108" />
<vehicle id="Bus_321" type="MotorCycle" route="route_22" depart="108" />
<vehicle id="MotorCycle_322" type="MotorCycle" route="route_10" depart="109" />
<vehicle id="MotorCycle_323" type="Car" route="route_10" depart="109" />
<vehicle id="Car_324" type="MotorCycle" route="route_12" depart="109" />
<vehicle id="MotorCycle_325" type="MotorCycle" route="route_19" depart="109" />
<vehicle id="MotorCycle_326" type="MotorCycle" route="route_20" depart="109" />
<vehicle id="Car_327" type="Auto" route="route_21" depart="109" />
<vehicle id="Car_328" type="MotorCycle" route="route_22" depart="110" />
<vehicle id="Bus_329" type="MotorCycle" route="route_4" depart="111" />
<vehicle id="Auto_330" type="Bus" route="route_8" depart="111" />
<vehicle id="MotorCycle_331" type="MotorCycle" route="route_13" depart="111" />
<vehicle id="Bus_332" type="MotorCycle" route="route_20" depart="112" />
<vehicle id="Auto_333" type="MotorCycle" route="route_19" depart="113" />
<vehicle id="Car_334" type="MotorCycle" route="route_23" depart="113" />
<vehicle id="Car_335" type="Auto" route="route_24" depart="113" />
<vehicle id="Car_336" type="MotorCycle" route="route_24" depart="113" />
<vehicle id="Car_337" type="MotorCycle" route="route_20" depart="114" />
<vehicle id="MotorCycle_338" type="MotorCycle" route="route_22" depart="114" />
<vehicle id="Bus_339" type="MotorCycle" route="route_23" depart="114" />
<vehicle id="Bus_340" type="MotorCycle" route="route_24" depart="114" />
<vehicle id="Bus_341" type="MotorCycle" route="route_21" depart="115" />
<vehicle id="Bus_342" type="MotorCycle" route="route_22" depart="115" />
<vehicle id="Bus_343" type="Car" route="route_22" depart="115" />
<vehicle id="Car_344" type="MotorCycle" route="route_20" depart="116" />
<vehicle id="Car_345" type="Car" route="route_20" depart="116" />
<vehicle id="Car_346" type="MotorCycle" route="route_21" depart="116" />
<vehicle id="Car_347" type="Car" route="route_21" depart="116" />
<vehicle id="MotorCycle_348" type="MotorCycle" route="route_22" depart="116" />
<vehicle id="Car_349" type="MotorCycle" route="route_24" depart="116" />
<vehicle id="Bus_350" type="Auto" route="route_22" depart="117" />
<vehicle id="Bus_351" type="MotorCycle" route="route_22" depart="117" />
<vehicle id="Auto_352" type="MotorCycle" route="route_23" depart="118" />
<vehicle id="Auto_353" type="MotorCycle" route="route_24" depart="118" />
<vehicle id="MotorCycle_354" type="MotorCycle" route="route_21" depart="119" />
<vehicle id="Auto_355" type="MotorCycle" route="route_20" depart="120" />
<vehicle id="MotorCycle_356" type="Car" route="route_23" depart="120" />
<vehicle id="Auto_357" type="MotorCycle" route="route_24" depart="120" />
<vehicle id="Auto_358" type="MotorCycle" route="route_20" depart="121" />
<vehicle id="Bus_359" type="Auto" route="route_12" depart="122" />
<vehicle id="Bus_360" type="MotorCycle" route="route_12" depart="122" />
<vehicle id="Bus_361" type="Car" route="route_12" depart="122" />
<vehicle id="MotorCycle_362" type="MotorCycle" route="route_19" depart="122" />
<vehicle id="Car_363" type="MotorCycle" route="route_23" depart="122" />
<vehicle id="Auto_364" type="MotorCycle" route="route_21" depart="123" />
<vehicle id="MotorCycle_365" type="Car" route="route_22" depart="123" />
<vehicle id="Bus_366" type="Bus" route="route_22" depart="124" />
<vehicle id="Bus_367" type="MotorCycle" route="route_22" depart="124" />
<vehicle id="Bus_368" type="MotorCycle" route="route_24" depart="124" />
<vehicle id="MotorCycle_369" type="MotorCycle" route="route_20" depart="125" />
<vehicle id="MotorCycle_370" type="Car" route="route_20" depart="125" />
<vehicle id="Bus_371" type="MotorCycle" route="route_22" depart="125" />
<vehicle id="Auto_372" type="MotorCycle" route="route_24" depart="125" />
<vehicle id="Car_373" type="MotorCycle" route="route_21" depart="126" />
<vehicle id="Car_374" type="MotorCycle" route="route_22" depart="126" />
<vehicle id="Auto_375" type="MotorCycle" route="route_20" depart="127" />