<routes>
<vType id="Bus" accel="0.6" decel="3.5" sigma="0.5" length="10.1" minGap="1.0" maxSpeed="16.67" carFollowModel="Wiedemann" guiShape="bus" width="2.45" latAlignment="left" laneChangeModel="SL2015" lcStrategic="0.5" lcCooperative="0.0"/>
<vType id="Auto" accel="0.7" decel="4.5" sigma="0.5" length="2.6" minGap="0.3" maxSpeed="16" carFollowModel="Wiedemann" guiShape="passenger/sedan" width="1.25" latAlignment="left" laneChangeModel="SL2015" lcStrategic="0.5" lcCooperative="0.0" />
<vType id="MotorCycle" accel="0.9" decel="3.5" sigma="0.5" length="1.85" minGap="0.15"  carFollowModel="Wiedemann" maxSpeed="17" guiShape="motorcycle" width="0.7" latAlignment="left" laneChangeModel="SL2015" lcStrategic="0.5" lcCooperative="0.0"/>
<vType id="Car" accel="0.8" decel="4.5" sigma="0.5" length="3.6" minGap="0.5" maxSpeed="40" carFollowModel="Wiedemann" guiShape="passenger" width="1.5" latAlignment="left" laneChangeModel="SL2015" lcStrategic="0.5" lcCooperative="0.0"/>
<vType id="emergency" accel="2.8" decel="5.5" sigma="0.5" length="3.6" minGap="0.5" maxSpeed="120.6" carFollowModel="Wiedemann" guiShape="emergency" width="1.5" latAlignment="left" laneChangeModel="SL2015" lcStrategic="0.5" lcCooperative="0.0" vClass="emergency" speedFactor="1.9" jmDriveAfterRedTime="300" jmDriveAfterRedSpeed="5.56">
<param key="has.bluelight.device" value="true"/>
<param key="has.fcd.device" value="true"/> 
</vType>
<route id="route_0" edges="1i 52i gneE0 gneE2" />
<route id="route_1" edges="-gneE2 -gneE0 52o 2i 1o" />
        <route id="route_2" edges="4i 3o" />
        <route id="route_3" edges="3i 4o" />
        <route id="route_4" edges="-gneE1 gneE3" /> 
        <route id="route_5" edges="4i 1o" />
        <route id="route_6" edges="4i 2o 52i gneE0 gneE1" />
        <route id="route_7" edges="2i 4o" />
        <route id="route_8" edges="2i 3o" />
        <route id="route_9" edges="-gneE1 gneE3" />
        <route id="route_10" edges="3i 2o 52i gneE0 gneE3" />
        <route id="route_11" edges="3i 1o" />
        <route id="route_12" edges="-gneE1 -gneE0 52o 2i 4o" />
        <route id="route_13" edges="-gneE1 gneE2" />
        <route id="route_14" edges="-gneE2 gneE1" />
        <route id="route_15" edges="-gneE2 gneE3" />
        <route id="route_16" edges="-gneE3 -gneE0 52o 2i 3o" />
        <route id="route_17" edges="-gneE3 gneE2" />
        <route id="route_18" edges="gneE0 gneE3" />
        <route id="route_19" edges="gneE0 gneE1" />
        <route id="route_20" edges="1i 2o 52i gneE0 gneE2 -gneE4 gneE5" />
        <route id="route_21" edges="-gneE5 gneE4 -gneE2 -gneE0 52o 2i 1o" />
        <route id="route_22" edges="-gneE5 gneE4 -gneE2 -gneE0 52o 2i 3o" />
        <route id="route_23" edges="1i 2o 52i gneE0 gneE2 -gneE4 gneE7" />

	<route id="route_24" edges="gneE0"/>
<vehicle id="emergency_0" type="emergency" route="route_4" depart="0" />
<vehicle id="Bus_0" type="Bus" route="route_4" depart="0" />
<vehicle id="Car_0" type="Car" route="route_12" depart="0" />
<vehicle id="Auto_1" type="MotorCycle" route="route_20" depart="1" />
<vehicle id="Auto_2" type="MotorCycle" route="route_21" depart="1" />
<vehicle id="Car_3" type="MotorCycle" route="route_2" depart="2" />
<vehicle id="Car_4" type="Auto" route="route_4" depart="2" />
<vehicle id="Car_5" type="MotorCycle" route="route_4" depart="2" />
<vehicle id="Auto_6" type="MotorCycle" route="route_8" depart="2" />
<vehicle id="Car_7" type="MotorCycle" route="route_9" depart="2" />
<vehicle id="Car_8" type="Car" route="route_9" depart="2" />
<vehicle id="Car_9" type="MotorCycle" route="route_19" depart="2" />
<vehicle id="MotorCycle_10" type="MotorCycle" route="route_20" depart="3" />
<vehicle id="Bus_11" type="MotorCycle" route="route_24" depart="3" />
<vehicle id="Bus_12" type="MotorCycle" route="route_1" depart="4" />
<vehicle id="Bus_13" type="MotorCycle" route="route_5" depart="4" />
<vehicle id="Car_14" type="MotorCycle" route="route_22" depart="4" />
<vehicle id="MotorCycle_15" type="MotorCycle" route="route_4" depart="5" />
<vehicle id="MotorCycle_16" type="MotorCycle" route="route_22" depart="5" />
<vehicle id="Car_17" type="MotorCycle" route="route_23" depart="5" />
<vehicle id="MotorCycle_18" type="MotorCycle" route="route_24" depart="5" />
<vehicle id="MotorCycle_19" type="Car" route="route_24" depart="5" />
<vehicle id="MotorCycle_20" type="MotorCycle" route="route_20" depart="7" />
<vehicle id="Car_21" type="MotorCycle" route="route_22" depart="7" />
<vehicle id="Bus_22" type="MotorCycle" route="route_12" depart="8" />
<vehicle id="Bus_23" type="Car" route="route_12" depart="8" />
<vehicle id="Auto_24" type="MotorCycle" route="route_19" depart="8" />
<vehicle id="Bus_25" type="MotorCycle" route="route_21" depart="8" />
<vehicle id="Car_26" type="Car" route="route_22" depart="8" />
<vehicle id="Bus_27" type="MotorCycle" route="route_3" depart="9" />
<vehicle id="Car_28" type="Bus" route="route_21" depart="9" />
<vehicle id="Car_29" type="MotorCycle" route="route_21" depart="9" />
<vehicle id="Car_30" type="Car" route="route_21" depart="9" />
<vehicle id="MotorCycle_31" type="MotorCycle" route="route_22" depart="9" />
<vehicle id="Bus_32" type="MotorCycle" route="route_23" depart="9" />
<vehicle id="Bus_33" type="Car" route="route_23" depart="9" />
<vehicle id="Auto_34" type="MotorCycle" route="route_17" depart="10" />
<vehicle id="Bus_35" type="MotorCycle" route="route_23" depart="10" />
<vehicle id="Car_36" type="MotorCycle" route="route_22" depart="11" />
<vehicle id="Car_37" type="MotorCycle" route="route_24" depart="11" />
<vehicle id="Bus_38" type="MotorCycle" route="route_21" depart="12" />
<vehicle id="MotorCycle_39" type="MotorCycle" route="route_24" depart="12" />
<vehicle id="MotorCycle_40" type="MotorCycle" route="route_2" depart="13" />
<vehicle id="Auto_41" type="MotorCycle" route="route_13" depart="14" />
<vehicle id="Car_42" type="MotorCycle" route="route_24" depart="14" />
<vehicle id="Bus_43" type="MotorCycle" route="route_21" depart="15" />
<vehicle id="MotorCycle_44" type="MotorCycle" route="route_22" depart="15" />
<vehicle id="Bus_45" type="MotorCycle" route="route_19" depart="16" />
<vehicle id="Car_46" type="MotorCycle" route="route_20" depart="16" />
<vehicle id="MotorCycle_47" type="MotorCycle" route="route_24" depart="16" />
<vehicle id="Auto_48" type="MotorCycle" route="route_23" depart="17" />
<vehicle id="MotorCycle_49" type="MotorCycle" route="route_21" depart="18" />
<vehicle id="MotorCycle_50" type="Car" route="route_21" depart="18" />
<vehicle id="Auto_51" type="MotorCycle" route="route_24" depart="19" />
<vehicle id="Car_52" type="MotorCycle" route="route_19" depart="21" />
<vehicle id="Car_53" type="Car" route="route_19" depart="21" />
<vehicle id="Auto_54" type="MotorCycle" route="route_20" depart="21" />
<vehicle id="MotorCycle_55" type="Auto" route="route_21" depart="21" />
<vehicle id="MotorCycle_56" type="MotorCycle" route="route_21" depart="21" />
<vehicle id="Bus_57" type="MotorCycle" route="route_22" depart="21" />
<vehicle id="Auto_58" type="MotorCycle" route="route_19" depart="22" />
<vehicle id="Auto_59" type="MotorCycle" route="route_22" depart="22" />
<vehicle id="Bus_60" type="MotorCycle" route="route_24" depart="22" />
<vehicle id="Bus_61" type="MotorCycle" route="route_20" depart="23" />
<vehicle id="MotorCycle_62" type="MotorCycle" route="route_21" depart="23" />
<vehicle id="Auto_63" type="MotorCycle" route="route_22" depart="23" />
<vehicle id="MotorCycle_64" type="MotorCycle" route="route_21" depart="25" />
<vehicle id="Auto_65" type="MotorCycle" route="route_22" depart="25" />
<vehicle id="MotorCycle_66" type="Auto" route="route_22" depart="26" />
<vehicle id="MotorCycle_67" type="MotorCycle" route="route_22" depart="26" />
<vehicle id="Bus_68" type="MotorCycle" route="route_13" depart="27" />
<vehicle id="Car_69" type="Auto" route="route_21" depart="27" />
<vehicle id="Car_70" type="MotorCycle" route="route_21" depart="27" />
<vehicle id="Bus_71" type="MotorCycle" route="route_24" depart="27" />
<vehicle id="MotorCycle_72" type="MotorCycle" route="route_4" depart="28" />
<vehicle id="Car_73" type="MotorCycle" route="route_5" depart="28" />
<vehicle id="Bus_74" type="MotorCycle" route="route_7" depart="28" />
<vehicle id="Bus_75" type="MotorCycle" route="route_21" depart="28" />
<vehicle id="Bus_76" type="Car" route="route_21" depart="28" />
<vehicle id="Bus_77" type="MotorCycle" route="route_22" depart="28" />
<vehicle id="Bus_78" type="Car" route="route_22" depart="28" />
<vehicle id="MotorCycle_79" type="MotorCycle" route="route_19" depart="29" />
<vehicle id="MotorCycle_80" type="Car" route="route_19" depart="29" />
<vehicle id="Bus_81" type="MotorCycle" route="route_22" depart="29" />
<vehicle id="Car_82" type="MotorCycle" route="route_13" depart="30" />
<vehicle id="Auto_83" type="MotorCycle" route="route_20" depart="30" />
<vehicle id="Car_84" type="MotorCycle" route="route_21" depart="30" />
<vehicle id="Car_85" type="Car" route="route_21" depart="30" />
<vehicle id="Car_86" type="MotorCycle" route="route_22" depart="30" />
<vehicle id="Bus_87" type="MotorCycle" route="route_3" depart="31" />
<vehicle id="Bus_88" type="MotorCycle" route="route_24" depart="31" />
<vehicle id="Bus_89" type="MotorCycle" route="route_11" depart="32" />
<vehicle id="Bus_90" type="Car" route="route_11" depart="32" />
<vehicle id="Car_91" type="MotorCycle" route="route_19" depart="32" />
<vehicle id="Auto_92" type="MotorCycle" route="route_24" depart="32" />
<vehicle id="MotorCycle_93" type="MotorCycle" route="route_20" depart="33" />
<vehicle id="MotorCycle_94" type="Car" route="route_20" depart="33" />
<vehicle id="Bus_95" type="MotorCycle" route="route_21" depart="33" />
<vehicle id="Bus_96" type="Car" route="route_21" depart="33" />
<vehicle id="Car_97" type="Auto" route="route_22" depart="33" />
<vehicle id="MotorCycle_98" type="Auto" route="route_9" depart="34" />
<vehicle id="MotorCycle_99" type="MotorCycle" route="route_9" depart="34" />
<vehicle id="MotorCycle_100" type="MotorCycle" route="route_21" depart="34" />
<vehicle id="Auto_101" type="Auto" route="route_12" depart="35" />
<vehicle id="Auto_102" type="MotorCycle" route="route_12" depart="35" />
<vehicle id="MotorCycle_103" type="Auto" route="route_23" depart="35" />
<vehicle id="MotorCycle_104" type="MotorCycle" route="route_23" depart="35" />
<vehicle id="MotorCycle_105" type="Car" route="route_23" depart="35" />
<vehicle id="MotorCycle_106" type="MotorCycle" route="route_24" depart="35" />
<vehicle id="Car_107" type="MotorCycle" route="route_2" depart="36" />
<vehicle id="Car_108" type="Car" route="route_2" depart="36" />
<vehicle id="MotorCycle_109" type="MotorCycle" route="route_21" depart="36" />
<vehicle id="Car_110" type="MotorCycle" route="route_22" depart="36" />
<vehicle id="Bus_111" type="MotorCycle" route="route_18" depart="37" />
<vehicle id="Car_112" type="MotorCycle" route="route_21" depart="37" />
<vehicle id="MotorCycle_113" type="MotorCycle" route="route_24" depart="37" />
<vehicle id="Auto_114" type="MotorCycle" route="route_18" depart="38" />
<vehicle id="Auto_115" type="MotorCycle" route="route_20" depart="38" />
<vehicle id="Bus_116" type="Auto" route="route_23" depart="38" />
<vehicle id="Bus_117" type="MotorCycle" route="route_23" depart="38" />
<vehicle id="MotorCycle_118" type="MotorCycle" route="route_19" depart="39" />
<vehicle id="Auto_119" type="Car" route="route_21" depart="39" />
<vehicle id="Car_120" type="MotorCycle" route="route_3" depart="41" />
<vehicle id="MotorCycle_121" type="MotorCycle" route="route_4" depart="41" />
<vehicle id="Bus_122" type="MotorCycle" route="route_21" depart="41" />
<vehicle id="Bus_123" type="Car" route="route_21" depart="41" />
<vehicle id="Car_124" type="Auto" route="route_23" depart="42" />
<vehicle id="Car_125" type="MotorCycle" route="route_21" depart="43" />
<vehicle id="Car_126" type="Car" route="route_21" depart="43" />
<vehicle id="MotorCycle_127" type="MotorCycle" route="route_21" depart="44" />
<vehicle id="MotorCycle_128" type="Car" route="route_21" depart="44" />
<vehicle id="Car_129" type="MotorCycle" route="route_22" depart="44" />
<vehicle id="Auto_130" type="MotorCycle" route="route_1" depart="45" />
<vehicle id="MotorCycle_131" type="MotorCycle" route="route_16" depart="45" />
<vehicle id="Auto_132" type="MotorCycle" route="route_21" depart="45" />
<vehicle id="Bus_133" type="MotorCycle" route="route_22" depart="45" />
<vehicle id="MotorCycle_134" type="MotorCycle" route="route_24" depart="45" />
<vehicle id="MotorCycle_135" type="Auto" route="route_1" depart="46" />
<vehicle id="MotorCycle_136" type="Bus" route="route_22" depart="46" />
<vehicle id="MotorCycle_137" type="MotorCycle" route="route_22" depart="46" />
<vehicle id="Auto_138" type="MotorCycle" route="route_10" depart="47" />
<vehicle id="MotorCycle_139" type="MotorCycle" route="route_22" depart="47" />
<vehicle id="MotorCycle_140" type="Car" route="route_22" depart="47" />
<vehicle id="Car_141" type="MotorCycle" route="route_24" depart="47" />
<vehicle id="Auto_142" type="MotorCycle" route="route_24" depart="50" />
<vehicle id="Car_143" type="Auto" route="route_10" depart="51" />
<vehicle id="Car_144" type="MotorCycle" route="route_10" depart="51" />
<vehicle id="Car_145" type="Car" route="route_10" depart="51" />
<vehicle id="MotorCycle_146" type="MotorCycle" route="route_12" depart="51" />
<vehicle id="MotorCycle_147" type="MotorCycle" route="route_21" depart="51" />
<vehicle id="Bus_148" type="MotorCycle" route="route_23" depart="51" />
<vehicle id="Auto_149" type="MotorCycle" route="route_4" depart="52" />
<vehicle id="Auto_150" type="MotorCycle" route="route_21" depart="52" />
<vehicle id="Car_151" type="MotorCycle" route="route_22" depart="52" />
<vehicle id="Car_152" type="MotorCycle" route="route_24" depart="52" />
<vehicle id="Bus_153" type="MotorCycle" route="route_9" depart="53" />
<vehicle id="MotorCycle_154" type="MotorCycle" route="route_10" depart="53" />
<vehicle id="MotorCycle_155" type="Car" route="route_10" depart="53" />
<vehicle id="Auto_156" type="MotorCycle" route="route_19" depart="53" />
<vehicle id="Auto_157" type="MotorCycle" route="route_21" depart="53" />
<vehicle id="Bus_158" type="Auto" route="route_24" depart="53" />
<vehicle id="Bus_159" type="MotorCycle" route="route_24" depart="53" />
<vehicle id="Bus_160" type="MotorCycle" route="route_1" depart="54" />
<vehicle id="Bus_161" type="Car" route="route_1" depart="54" />
<vehicle id="Car_162" type="Bus" route="route_22" depart="54" />
<vehicle id="Car_163" type="MotorCycle" route="route_13" depart="55" />
<vehicle id="Auto_164" type="Auto" route="route_19" depart="55" />
<vehicle id="MotorCycle_165" type="MotorCycle" route="route_9" depart="56" />
<vehicle id="Auto_166" type="MotorCycle" route="route_21" depart="56" />
<vehicle id="Car_167" type="MotorCycle" route="route_23" depart="56" />
<vehicle id="Auto_168" type="Car" route="route_24" depart="56" />
<vehicle id="Bus_169" type="MotorCycle" route="route_15" depart="57" />
<vehicle id="Bus_170" type="MotorCycle" route="route_21" depart="58" />
<vehicle id="Auto_171" type="MotorCycle" route="route_2" depart="59" />
<vehicle id="Auto_172" type="MotorCycle" route="route_20" depart="59" />
<vehicle id="MotorCycle_173" type="MotorCycle" route="route_21" depart="59" />
<vehicle id="Bus_174" type="MotorCycle" route="route_1" depart="60" />
<vehicle id="Car_175" type="MotorCycle" route="route_2" depart="60" />
<vehicle id="Car_176" type="Car" route="route_2" depart="60" />
<vehicle id="MotorCycle_177" type="MotorCycle" route="route_11" depart="60" />
<vehicle id="Bus_178" type="MotorCycle" route="route_22" depart="60" />
<vehicle id="Auto_179" type="MotorCycle" route="route_24" depart="60" />
<vehicle id="Car_180" type="MotorCycle" route="route_12" depart="61" />
<vehicle id="Auto_181" type="MotorCycle" route="route_23" depart="61" />
<vehicle id="Auto_182" type="MotorCycle" route="route_24" depart="61" />
<vehicle id="Car_183" type="MotorCycle" route="route_2" depart="62" />
<vehicle id="Auto_184" type="MotorCycle" route="route_21" depart="62" />
<vehicle id="Bus_185" type="MotorCycle" route="route_22" depart="62" />
<vehicle id="Auto_186" type="MotorCycle" route="route_21" depart="63" />
<vehicle id="MotorCycle_187" type="MotorCycle" route="route_22" depart="63" />
<vehicle id="Car_188" type="MotorCycle" route="route_23" depart="64" />
<vehicle id="Auto_189" type="MotorCycle" route="route_24" depart="64" />
<vehicle id="Auto_190" type="Car" route="route_24" depart="64" />
<vehicle id="Bus_191" type="MotorCycle" route="route_21" depart="66" />
<vehicle id="Car_192" type="MotorCycle" route="route_22" depart="66" />
<vehicle id="MotorCycle_193" type="MotorCycle" route="route_12" depart="67" />
<vehicle id="MotorCycle_194" type="Car" route="route_20" depart="67" />
<vehicle id="Car_195" type="MotorCycle" route="route_22" depart="67" />
<vehicle id="Car_196" type="MotorCycle" route="route_24" depart="67" />
<vehicle id="Bus_197" type="MotorCycle" route="route_1" depart="68" />
<vehicle id="Car_198" type="MotorCycle" route="route_21" depart="68" />
<vehicle id="Car_199" type="MotorCycle" route="route_11" depart="69" />
<vehicle id="Auto_200" type="MotorCycle" route="route_22" depart="69" />
<vehicle id="MotorCycle_201" type="MotorCycle" route="route_23" depart="70" />
<vehicle id="MotorCycle_202" type="MotorCycle" route="route_24" depart="70" />
<vehicle id="Auto_203" type="MotorCycle" route="route_3" depart="71" />
<vehicle id="Auto_204" type="MotorCycle" route="route_16" depart="71" />
<vehicle id="Auto_205" type="Car" route="route_16" depart="71" />
<vehicle id="Auto_206" type="Car" route="route_19" depart="71" />
<vehicle id="MotorCycle_207" type="MotorCycle" route="route_12" depart="72" />
<vehicle id="MotorCycle_208" type="MotorCycle" route="route_24" depart="72" />
<vehicle id="Auto_209" type="MotorCycle" route="route_20" depart="73" />
<vehicle id="Auto_210" type="MotorCycle" route="route_22" depart="73" />
<vehicle id="Car_211" type="MotorCycle" route="route_3" depart="74" />
<vehicle id="Car_212" type="Car" route="route_3" depart="74" />
<vehicle id="Bus_213" type="MotorCycle" route="route_20" depart="74" />
<vehicle id="Auto_214" type="MotorCycle" route="route_8" depart="75" />
<vehicle id="Car_215" type="Car" route="route_22" depart="75" />
<vehicle id="Auto_216" type="MotorCycle" route="route_7" depart="76" />
<vehicle id="Bus_217" type="MotorCycle" route="route_8" depart="76" />
<vehicle id="Car_218" type="MotorCycle" route="route_21" depart="76" />
<vehicle id="Car_219" type="Car" route="route_21" depart="76" />
<vehicle id="Car_220" type="MotorCycle" route="route_22" depart="76" />
<vehicle id="Car_221" type="Car" route="route_22" depart="76" />
<vehicle id="MotorCycle_222" type="MotorCycle" route="route_19" depart="77" />
<vehicle id="MotorCycle_223" type="MotorCycle" route="route_21" depart="77" />
<vehicle id="Bus_224" type="MotorCycle" route="route_8" depart="78" />
<vehicle id="Car_225" type="MotorCycle" route="route_11" depart="78" />
<vehicle id="Auto_226" type="MotorCycle" route="route_23" depart="78" />
<vehicle id="Auto_227" type="Car" route="route_23" depart="78" />
<vehicle id="Car_228" type="MotorCycle" route="route_24" depart="78" />
<vehicle id="Car_229" type="MotorCycle" route="route_8" depart="79" />
<vehicle id="Auto_230" type="MotorCycle" route="route_21" depart="79" />
<vehicle id="Car_231" type="MotorCycle" route="route_22" depart="79" />
<vehicle id="Bus_232" type="Auto" route="route_24" depart="80" />
<vehicle id="Bus_233" type="MotorCycle" route="route_24" depart="80" />
<vehicle id="Bus_234" type="MotorCycle" route="route_15" depart="81" />
<vehicle id="Auto_235" type="Auto" route="route_21" depart="81" />
<vehicle id="Auto_236" type="Car" route="route_21" depart="81" />
<vehicle id="Auto_237" type="Auto" route="route_19" depart="82" />
<vehicle id="Auto_238" type="MotorCycle" route="route_19" depart="82" />
<vehicle id="Car_239" type="MotorCycle" route="route_21" depart="82" />
<vehicle id="Car_240" type="Car" route="route_21" depart="82" />
<vehicle id="Auto_241" type="MotorCycle" route="route_24" depart="82" />
<vehicle id="Car_242" type="MotorCycle" route="route_4" depart="83" />
<vehicle id="MotorCycle_243" type="Bus" route="route_17" depart="83" />
<vehicle id="MotorCycle_244" type="MotorCycle" route="route_17" depart="83" />
<vehicle id="Car_245" type="MotorCycle" route="route_22" depart="83" />
<vehicle id="Car_246" type="MotorCycle" route="route_1" depart="84" />
<vehicle id="MotorCycle_247" type="MotorCycle" route="route_16" depart="84" />
<vehicle id="Car_248" type="Auto" route="route_20" depart="84" />
<vehicle id="Car_249" type="MotorCycle" route="route_20" depart="84" />
<vehicle id="Car_250" type="Car" route="route_20" depart="84" />
<vehicle id="Bus_251" type="MotorCycle" route="route_21" depart="84" />
<vehicle id="Bus_252" type="Auto" route="route_22" depart="84" />
<vehicle id="Bus_253" type="Car" route="route_22" depart="84" />
<vehicle id="Auto_254" type="MotorCycle" route="route_24" depart="84" />
<vehicle id="Bus_255" type="MotorCycle" route="route_20" depart="85" />
<vehicle id="Bus_256" type="Car" route="route_20" depart="85" />
<vehicle id="Car_257" type="Car" route="route_23" depart="85" />
<vehicle id="MotorCycle_258" type="Car" route="route_3" depart="86" />
<vehicle id="Bus_259" type="MotorCycle" route="route_4" depart="86" />
<vehicle id="Bus_260" type="Car" route="route_4" depart="86" />
<vehicle id="MotorCycle_261" type="MotorCycle" route="route_20" depart="86" />
<vehicle id="Bus_262" type="Bus" route="route_23" depart="87" />
<vehicle id="Bus_263" type="MotorCycle" route="route_23" depart="87" />
<vehicle id="Bus_264" type="Car" route="route_23" depart="87" />
<vehicle id="MotorCycle_265" type="MotorCycle" route="route_20" depart="88" />
<vehicle id="Bus_266" type="MotorCycle" route="route_21" depart="88" />
<vehicle id="Bus_267" type="MotorCycle" route="route_11" depart="89" />
<vehicle id="Bus_268" type="MotorCycle" route="route_22" depart="89" />
<vehicle id="Bus_269" type="Car" route="route_22" depart="89" />
<vehicle id="MotorCycle_270" type="Bus" route="route_23" depart="89" />
<vehicle id="Bus_271" type="MotorCycle" route="route_24" depart="89" />
<vehicle id="Bus_272" type="Car" route="route_24" depart="89" />
<vehicle id="Bus_273" type="Auto" route="route_21" depart="90" />
<vehicle id="Bus_274" type="MotorCycle" route="route_21" depart="90" />
<vehicle id="Car_275" type="MotorCycle" route="route_9" depart="91" />
<vehicle id="Bus_276" type="Auto" route="route_4" depart="92" />
<vehicle id="Auto_277" type="Car" route="route_9" depart="92" />
<vehicle id="Car_278" type="MotorCycle" route="route_10" depart="92" />
<vehicle id="Car_279" type="MotorCycle" route="route_21" depart="92" />
<vehicle id="Car_280" type="MotorCycle" route="route_9" depart="93" />
<vehicle id="MotorCycle_281" type="MotorCycle" route="route_20" depart="93" />
<vehicle id="MotorCycle_282" type="MotorCycle" route="route_21" depart="93" />
<vehicle id="Car_283" type="MotorCycle" route="route_22" depart="93" />
<vehicle id="Car_284" type="MotorCycle" route="route_23" depart="93" />
<vehicle id="Car_285" type="MotorCycle" route="route_5" depart="94" />
<vehicle id="Car_286" type="MotorCycle" route="route_21" depart="94" />
<vehicle id="MotorCycle_287" type="Auto" route="route_23" depart="94" />
<vehicle id="MotorCycle_288" type="Car" route="route_23" depart="94" />
<vehicle id="Bus_289" type="MotorCycle" route="route_5" depart="95" />
<vehicle id="Bus_290" type="Car" route="route_5" depart="95" />
<vehicle id="Bus_291" type="MotorCycle" route="route_22" depart="95" />
<vehicle id="MotorCycle_292" type="MotorCycle" route="route_23" depart="96" />
<vehicle id="Car_293" type="MotorCycle" route="route_24" depart="96" />
<vehicle id="MotorCycle_294" type="MotorCycle" route="route_2" depart="97" />
<vehicle id="Car_295" type="MotorCycle" route="route_9" depart="97" />
<vehicle id="Auto_296" type="MotorCycle" route="route_21" depart="97" />
<vehicle id="Bus_297" type="MotorCycle" route="route_16" depart="98" />
<vehicle id="MotorCycle_298" type="Bus" route="route_19" depart="98" />
<vehicle id="MotorCycle_299" type="MotorCycle" route="route_19" depart="98" />
<vehicle id="Bus_300" type="MotorCycle" route="route_20" depart="98" />
<vehicle id="Bus_301" type="MotorCycle" route="route_21" depart="98" />
<vehicle id="MotorCycle_302" type="Car" route="route_22" depart="98" />
<vehicle id="Auto_303" type="Auto" route="route_23" depart="98" />
<vehicle id="Auto_304" type="MotorCycle" route="route_23" depart="98" />
<vehicle id="MotorCycle_305" type="MotorCycle" route="route_2" depart="99" />
<vehicle id="MotorCycle_306" type="Car" route="route_2" depart="99" />
<vehicle id="Bus_307" type="MotorCycle" route="route_23" depart="99" />
<vehicle id="Bus_308" type="Auto" route="route_19" depart="100" />
<vehicle id="Bus_309" type="MotorCycle" route="route_19" depart="100" />
<vehicle id="Bus_310" type="MotorCycle" route="route_4" depart="101" />
<vehicle id="Bus_311" type="MotorCycle" route="route_21" depart="102" />
<vehicle id="Bus_312" type="MotorCycle" route="route_22" depart="102" />
<vehicle id="Bus_313" type="MotorCycle" route="route_23" depart="102" />
<vehicle id="Car_314" type="MotorCycle" route="route_24" depart="102" />
<vehicle id="Car_315" type="MotorCycle" route="route_3" depart="103" />
<vehicle id="MotorCycle_316" type="MotorCycle" route="route_14" depart="103" />
<vehicle id="Auto_317" type="MotorCycle" route="route_24" depart="103" />
<vehicle id="Car_318" type="MotorCycle" route="route_16" depart="104" />
<vehicle id="Auto_319" type="MotorCycle" route="route_20" depart="104" />
<vehicle id="MotorCycle_320" type="Bus" route="route_22" depart="104" />
<vehicle id="MotorCycle_321" type="MotorCycle" route="route_22" depart="104" />
<vehicle id="MotorCycle_322" type="MotorCycle" route="route_20" depart="105" />
<vehicle id="Auto_323" type="MotorCycle" route="route_22" depart="105" />
<vehicle id="Auto_324" type="Car" route="route_22" depart="105" />
<vehicle id="MotorCycle_325" type="MotorCycle" route="route_23" depart="105" />
<vehicle id="Bus_326" type="MotorCycle" route="route_1" depart="106" />
<vehicle id="Car_327" type="MotorCycle" route="route_21" depart="106" />
<vehicle id="Car_328" type="Car" route="route_21" depart="106" />
<vehicle id="Car_329" type="Auto" route="route_22" depart="106" />
<vehicle id="Car_330" type="MotorCycle" route="route_23" depart="106" />
<vehicle id="Bus_331" type="Auto" route="route_8" depart="107" />
<vehicle id="Bus_332" type="MotorCycle" route="route_8" depart="107" />
<vehicle id="MotorCycle_333" type="MotorCycle" route="route_19" depart="107" />
<vehicle id="MotorCycle_334" type="MotorCycle" route="route_21" depart="107" />
<vehicle id="MotorCycle_335" type="MotorCycle" route="route_23" depart="107" />
<vehicle id="MotorCycle_336" type="MotorCycle" route="route_14" depart="109" />
<vehicle id="Car_337" type="MotorCycle" route="route_20" depart="109" />
<vehicle id="Car_338" type="MotorCycle" route="route_21" depart="109" />
<vehicle id="Auto_339" type="MotorCycle" route="route_14" depart="110" />
<vehicle id="Auto_340" type="Auto" route="route_21" depart="110" />
<vehicle id="Auto_341" type="MotorCycle" route="route_21" depart="110" />
<vehicle id="Auto_342" type="Car" route="route_21" depart="110" />
<vehicle id="Car_343" type="MotorCycle" route="route_22" depart="110" />
<vehicle id="MotorCycle_344" type="Auto" route="route_22" depart="111" />
<vehicle id="MotorCycle_345" type="MotorCycle" route="route_22" depart="111" />
<vehicle id="MotorCycle_346" type="Bus" route="route_1" depart="112" />
<vehicle id="MotorCycle_347" type="MotorCycle" route="route_1" depart="112" />
<vehicle id="MotorCycle_348" type="Car" route="route_1" depart="112" />
<vehicle id="Auto_349" type="MotorCycle" route="route_3" depart="112" />
<vehicle id="Auto_350" type="Car" route="route_3" depart="112" />
<vehicle id="Auto_351" type="MotorCycle" route="route_15" depart="112" />
<vehicle id="MotorCycle_352" type="Car" route="route_21" depart="112" />
<vehicle id="Car_353" type="MotorCycle" route="route_2" depart="113" />
<vehicle id="Car_354" type="MotorCycle" route="route_7" depart="113" />
<vehicle id="Auto_355" type="MotorCycle" route="route_20" depart="113" />
<vehicle id="Bus_356" type="MotorCycle" route="route_21" depart="113" />
<vehicle id="Bus_357" type="Car" route="route_21" depart="113" />
<vehicle id="Bus_358" type="MotorCycle" route="route_19" depart="114" />
<vehicle id="Auto_359" type="Bus" route="route_20" depart="114" />
<vehicle id="Auto_360" type="MotorCycle" route="route_20" depart="114" />
<vehicle id="MotorCycle_361" type="MotorCycle" route="route_22" depart="114" />
<vehicle id="MotorCycle_362" type="MotorCycle" route="route_24" depart="114" />
<vehicle id="Auto_363" type="MotorCycle" route="route_20" depart="115" />
<vehicle id="MotorCycle_364" type="MotorCycle" route="route_24" depart="115" />
<vehicle id="Car_365" type="MotorCycle" route="route_19" depart="116" />
<vehicle id="Car_366" type="MotorCycle" route="route_23" depart="116" />
<vehicle id="Bus_367" type="MotorCycle" route="route_22" depart="117" />
<vehicle id="Car_368" type="MotorCycle" route="route_11" depart="118" />
<vehicle id="Auto_369" type="MotorCycle" route="route_21" depart="118" />
<vehicle id="Auto_370" type="Car" route="route_21" depart="118" />
<vehicle id="Car_371" type="MotorCycle" route="route_22" depart="118" />
<vehicle id="Bus_372" type="MotorCycle" route="route_24" depart="118" />
<vehicle id="Auto_373" type="MotorCycle" route="route_3" depart="119" />
<vehicle id="Bus_374" type="MotorCycle" route="route_23" depart="119" />
<vehicle id="Auto_375" type="MotorCycle" route="route_24" depart="119" />