<routes>
<vType id="Bus" accel="0.6" decel="3.5" sigma="0.5" length="10.1" minGap="1.0" maxSpeed="16.67" carFollowModel="Wiedemann" guiShape="bus" width="2.45" latAlignment="left" laneChangeModel="SL2015" lcStrategic="0.5" lcCooperative="0.0"/>
<vType id="Auto" accel="0.7" decel="4.5" sigma="0.5" length="2.6" minGap="0.3" maxSpeed="16" carFollowModel="Wiedemann" guiShape="passenger/sedan" width="1.25" latAlignment="left" laneChangeModel="SL2015" lcStrategic="0.5" lcCooperative="0.0" />
<vType id="MotorCycle" accel="0.9" decel="3.5" sigma="0.5" length="1.85" minGap="0.15"  carFollowModel="Wiedemann" maxSpeed="17" guiShape="motorcycle" width="0.7" latAlignment="left" laneChangeModel="SL2015" lcStrategic="0.5" lcCooperative="0.0"/>
<vType id="Car" accel="0.8" decel="4.5" sigma="0.5" length="3.6" minGap="0.5" maxSpeed="40" carFollowModel="Wiedemann" guiShape="passenger" width="1.5" latAlignment="left" laneChangeModel="SL2015" lcStrategic="0.5" lcCooperative="0.0"/>
<vType id="emergency" accel="2.8" decel="5.5" sigma="0.5" length="3.6" minGap="0.5" maxSpeed="120.6" carFollowModel="Wiedemann" guiShape="emergency" width="1.5" latAlignment="left" laneChangeModel="SL2015" lcStrategic="0.5" lcCooperative="0.0" vClass="emergency" speedFactor="1.9" jmDriveAfterRedTime="300" jmDriveAfterRedSpeed="5.56">
<param key="has.bluelight.device" value="true"/>
<param key="has.fcd.device" value="true"/> 
</vType>
<route id="route_0" edges="1i 52i gneE0 gneE2" />
<route id="route_1" edges="-gneE2 -gneE0 52o 2i 1o" />
        <route id="route_2" edges="4i 3o" />
        <route id="route_3" edges="3i 4o" />
        <route id="route_4" edges="-gneE1 gneE3" /> 
        <route id="route_5" edges="4i 1o" />
        <route id="route_6" edges="4i 2o 52i gneE0 gneE1" />
        <route id="route_7" edges="2i 4o" />
        <route id="route_8" edges="2i 3o" />
        <route id="route_9" edges="-gneE1 gneE3" />
        <route id="route_10" edges="3i 2o 52i gneE0 gneE3" />
        <route id="route_11" edges="3i 1o" />
        <route id="route_12" edges="-gneE1 -gneE0 52o 2i 4o" />
        <route id="route_13" edges="-gneE1 gneE2" />
        <route id="route_14" edges="-gneE2 gneE1" />
        <route id="route_15" edges="-gneE2 gneE3" />
        <route id="route_16" edges="-gneE3 -gneE0 52o 2i 3o" />
        <route id="route_17" edges="-gneE3 gneE2" />
        <route id="route_18" edges="gneE0 gneE3" />
        <route id="route_19" edges="gneE0 gneE1" />
        <route id="route_20" edges="1i 2o 52i gneE0 gneE2 -gneE4 gneE5" />
        <route id="route_21" edges="-gneE5 gneE4 -gneE2 -gneE0 52o 2i 1o" />
        <route id="route_22" edges="-gneE5 gneE4 -gneE2 -gneE0 52o 2i 3o" />
        <route id="route_23" edges="1i 2o 52i gneE0 gneE2 -gneE4 gneE7" />

	<route id="route_24" edges="gneE0"/>
<vehicle id="emergency_0" type="emergency" route="route_3" depart="0" />
<vehicle id="Bus_0" type="Bus" route="route_3" depart="0" />
<vehicle id="Car_0" type="Car" route="route_17" depart="0" />
<vehicle id="Auto_1" type="MotorCycle" route="route_19" depart="1" />
<vehicle id="Auto_2" type="Car" route="route_19" depart="1" />
<vehicle id="Auto_3" type="MotorCycle" route="route_20" depart="1" />
<vehicle id="Auto_4" type="Car" route="route_20" depart="1" />
<vehicle id="Auto_5" type="MotorCycle" route="route_23" depart="1" />
<vehicle id="Car_6" type="MotorCycle" route="route_21" depart="2" />
<vehicle id="Car_7" type="Car" route="route_21" depart="2" />
<vehicle id="Bus_8" type="MotorCycle" route="route_23" depart="3" />
<vehicle id="Auto_9" type="MotorCycle" route="route_24" depart="3" />
<vehicle id="Auto_10" type="Car" route="route_18" depart="5" />
<vehicle id="Car_11" type="MotorCycle" route="route_20" depart="5" />
<vehicle id="Bus_12" type="MotorCycle" route="route_23" depart="5" />
<vehicle id="Bus_13" type="Car" route="route_23" depart="5" />
<vehicle id="Bus_14" type="MotorCycle" route="route_5" depart="6" />
<vehicle id="Car_15" type="MotorCycle" route="route_21" depart="6" />
<vehicle id="Bus_16" type="MotorCycle" route="route_23" depart="6" />
<vehicle id="Car_17" type="MotorCycle" route="route_22" depart="8" />
<vehicle id="Car_18" type="MotorCycle" route="route_8" depart="9" />
<vehicle id="Car_19" type="MotorCycle" route="route_19" depart="9" />
<vehicle id="Car_20" type="Auto" route="route_20" depart="10" />
<vehicle id="Car_21" type="MotorCycle" route="route_20" depart="10" />
<vehicle id="MotorCycle_22" type="MotorCycle" route="route_22" depart="10" />
<vehicle id="Bus_23" type="MotorCycle" route="route_23" depart="10" />
<vehicle id="Bus_24" type="Car" route="route_23" depart="10" />
<vehicle id="MotorCycle_25" type="MotorCycle" route="route_4" depart="11" />
<vehicle id="MotorCycle_26" type="MotorCycle" route="route_13" depart="11" />
<vehicle id="Car_27" type="MotorCycle" route="route_10" depart="12" />
<vehicle id="MotorCycle_28" type="MotorCycle" route="route_20" depart="13" />
<vehicle id="Bus_29" type="MotorCycle" route="route_21" depart="13" />
<vehicle id="MotorCycle_30" type="Bus" route="route_22" depart="13" />
<vehicle id="MotorCycle_31" type="MotorCycle" route="route_22" depart="13" />
<vehicle id="Car_32" type="MotorCycle" route="route_23" depart="13" />
<vehicle id="Auto_33" type="MotorCycle" route="route_24" depart="13" />
<vehicle id="Car_34" type="MotorCycle" route="route_19" depart="14" />
<vehicle id="MotorCycle_35" type="MotorCycle" route="route_21" depart="14" />
<vehicle id="Bus_36" type="MotorCycle" route="route_22" depart="14" />
<vehicle id="Bus_37" type="Car" route="route_22" depart="14" />
<vehicle id="MotorCycle_38" type="MotorCycle" route="route_4" depart="15" />
<vehicle id="MotorCycle_39" type="MotorCycle" route="route_23" depart="16" />
<vehicle id="Bus_40" type="MotorCycle" route="route_19" depart="17" />
<vehicle id="Bus_41" type="Bus" route="route_21" depart="17" />
<vehicle id="Bus_42" type="MotorCycle" route="route_21" depart="17" />
<vehicle id="Bus_43" type="Car" route="route_21" depart="17" />
<vehicle id="Auto_44" type="Car" route="route_22" depart="17" />
<vehicle id="Bus_45" type="MotorCycle" route="route_23" depart="17" />
<vehicle id="Car_46" type="MotorCycle" route="route_21" depart="18" />
<vehicle id="MotorCycle_47" type="MotorCycle" route="route_22" depart="18" />
<vehicle id="MotorCycle_48" type="Auto" route="route_24" depart="18" />
<vehicle id="MotorCycle_49" type="MotorCycle" route="route_24" depart="18" />
<vehicle id="MotorCycle_50" type="MotorCycle" route="route_11" depart="19" />
<vehicle id="Bus_51" type="Car" route="route_21" depart="19" />
<vehicle id="MotorCycle_52" type="MotorCycle" route="route_24" depart="20" />
<vehicle id="MotorCycle_53" type="Auto" route="route_20" depart="21" />
<vehicle id="MotorCycle_54" type="MotorCycle" route="route_20" depart="21" />
<vehicle id="Car_55" type="MotorCycle" route="route_21" depart="21" />
<vehicle id="MotorCycle_56" type="MotorCycle" route="route_20" depart="22" />
<vehicle id="Car_57" type="MotorCycle" route="route_21" depart="22" />
<vehicle id="MotorCycle_58" type="MotorCycle" route="route_22" depart="22" />
<vehicle id="MotorCycle_59" type="Car" route="route_22" depart="22" />
<vehicle id="Auto_60" type="MotorCycle" route="route_23" depart="22" />
<vehicle id="Bus_61" type="MotorCycle" route="route_2" depart="23" />
<vehicle id="MotorCycle_62" type="MotorCycle" route="route_23" depart="23" />
<vehicle id="MotorCycle_63" type="Car" route="route_23" depart="23" />
<vehicle id="Bus_64" type="MotorCycle" route="route_11" depart="24" />
<vehicle id="MotorCycle_65" type="Auto" route="route_23" depart="24" />
<vehicle id="Bus_66" type="MotorCycle" route="route_24" depart="24" />
<vehicle id="Car_67" type="MotorCycle" route="route_22" depart="27" />
<vehicle id="Auto_68" type="MotorCycle" route="route_23" depart="27" />
<vehicle id="Auto_69" type="MotorCycle" route="route_21" depart="28" />
<vehicle id="Bus_70" type="MotorCycle" route="route_22" depart="29" />
<vehicle id="MotorCycle_71" type="MotorCycle" route="route_21" depart="30" />
<vehicle id="MotorCycle_72" type="Car" route="route_21" depart="30" />
<vehicle id="Car_73" type="MotorCycle" route="route_24" depart="30" />
<vehicle id="MotorCycle_74" type="MotorCycle" route="route_22" depart="31" />
<vehicle id="MotorCycle_75" type="MotorCycle" route="route_23" depart="31" />
<vehicle id="MotorCycle_76" type="MotorCycle" route="route_7" depart="32" />
<vehicle id="Auto_77" type="Car" route="route_21" depart="32" />
<vehicle id="Bus_78" type="MotorCycle" route="route_24" depart="32" />
<vehicle id="Bus_79" type="Car" route="route_24" depart="32" />
<vehicle id="Bus_80" type="MotorCycle" route="route_22" depart="33" />
<vehicle id="Car_81" type="MotorCycle" route="route_23" depart="33" />
<vehicle id="Car_82" type="Car" route="route_23" depart="33" />
<vehicle id="Bus_83" type="MotorCycle" route="route_21" depart="34" />
<vehicle id="Bus_84" type="MotorCycle" route="route_23" depart="34" />
<vehicle id="Bus_85" type="MotorCycle" route="route_24" depart="34" />
<vehicle id="MotorCycle_86" type="MotorCycle" route="route_24" depart="36" />
<vehicle id="MotorCycle_87" type="MotorCycle" route="route_12" depart="37" />
<vehicle id="Bus_88" type="MotorCycle" route="route_17" depart="38" />
<vehicle id="Car_89" type="MotorCycle" route="route_21" depart="38" />
<vehicle id="Bus_90" type="Car" route="route_2" depart="39" />
<vehicle id="MotorCycle_91" type="Bus" route="route_19" depart="39" />
<vehicle id="MotorCycle_92" type="MotorCycle" route="route_19" depart="39" />
<vehicle id="Car_93" type="MotorCycle" route="route_3" depart="40" />
<vehicle id="MotorCycle_94" type="MotorCycle" route="route_5" depart="40" />
<vehicle id="Car_95" type="MotorCycle" route="route_22" depart="40" />
<vehicle id="MotorCycle_96" type="MotorCycle" route="route_23" depart="40" />
<vehicle id="Car_97" type="MotorCycle" route="route_19" depart="41" />
<vehicle id="Car_98" type="MotorCycle" route="route_21" depart="41" />
<vehicle id="Car_99" type="MotorCycle" route="route_1" depart="42" />
<vehicle id="Auto_100" type="MotorCycle" route="route_20" depart="42" />
<vehicle id="Auto_101" type="Car" route="route_20" depart="42" />
<vehicle id="Auto_102" type="MotorCycle" route="route_23" depart="42" />
<vehicle id="Auto_103" type="Car" route="route_23" depart="42" />
<vehicle id="Auto_104" type="MotorCycle" route="route_24" depart="42" />
<vehicle id="Auto_105" type="MotorCycle" route="route_10" depart="43" />
<vehicle id="Bus_106" type="MotorCycle" route="route_20" depart="43" />
<vehicle id="Bus_107" type="MotorCycle" route="route_21" depart="43" />
<vehicle id="MotorCycle_108" type="Auto" route="route_11" depart="44" />
<vehicle id="MotorCycle_109" type="MotorCycle" route="route_11" depart="44" />
<vehicle id="Auto_110" type="MotorCycle" route="route_19" depart="45" />
<vehicle id="Bus_111" type="MotorCycle" route="route_22" depart="45" />
<vehicle id="Car_112" type="MotorCycle" route="route_4" depart="46" />
<vehicle id="Auto_113" type="MotorCycle" route="route_19" depart="46" />
<vehicle id="Car_114" type="MotorCycle" route="route_20" depart="46" />
<vehicle id="Bus_115" type="MotorCycle" route="route_21" depart="46" />
<vehicle id="Bus_116" type="Car" route="route_21" depart="46" />
<vehicle id="Bus_117" type="MotorCycle" route="route_23" depart="46" />
<vehicle id="Auto_118" type="MotorCycle" route="route_22" depart="48" />
<vehicle id="Car_119" type="MotorCycle" route="route_4" depart="49" />
<vehicle id="Car_120" type="MotorCycle" route="route_19" depart="49" />
<vehicle id="Auto_121" type="MotorCycle" route="route_20" depart="49" />
<vehicle id="Auto_122" type="Car" route="route_20" depart="49" />
<vehicle id="Bus_123" type="MotorCycle" route="route_16" depart="50" />
<vehicle id="Auto_124" type="MotorCycle" route="route_19" depart="50" />
<vehicle id="Auto_125" type="Car" route="route_19" depart="50" />
<vehicle id="Auto_126" type="MotorCycle" route="route_22" depart="50" />
<vehicle id="MotorCycle_127" type="MotorCycle" route="route_8" depart="51" />
<vehicle id="MotorCycle_128" type="MotorCycle" route="route_19" depart="51" />
<vehicle id="MotorCycle_129" type="MotorCycle" route="route_20" depart="51" />
<vehicle id="MotorCycle_130" type="Car" route="route_20" depart="51" />
<vehicle id="Auto_131" type="MotorCycle" route="route_23" depart="51" />
<vehicle id="Bus_132" type="MotorCycle" route="route_9" depart="52" />
<vehicle id="MotorCycle_133" type="MotorCycle" route="route_20" depart="52" />
<vehicle id="MotorCycle_134" type="MotorCycle" route="route_21" depart="53" />
<vehicle id="MotorCycle_135" type="MotorCycle" route="route_6" depart="54" />
<vehicle id="MotorCycle_136" type="Car" route="route_6" depart="54" />
<vehicle id="Bus_137" type="MotorCycle" route="route_19" depart="54" />
<vehicle id="Car_138" type="MotorCycle" route="route_24" depart="54" />
<vehicle id="MotorCycle_139" type="MotorCycle" route="route_8" depart="55" />
<vehicle id="Car_140" type="MotorCycle" route="route_21" depart="55" />
<vehicle id="MotorCycle_141" type="MotorCycle" route="route_6" depart="56" />
<vehicle id="MotorCycle_142" type="Car" route="route_6" depart="56" />
<vehicle id="Auto_143" type="MotorCycle" route="route_19" depart="57" />
<vehicle id="Auto_144" type="Car" route="route_19" depart="57" />
<vehicle id="Auto_145" type="MotorCycle" route="route_21" depart="57" />
<vehicle id="Car_146" type="MotorCycle" route="route_22" depart="57" />
<vehicle id="Auto_147" type="MotorCycle" route="route_23" depart="57" />
<vehicle id="Auto_148" type="MotorCycle" route="route_24" depart="57" />
<vehicle id="Car_149" type="MotorCycle" route="route_21" depart="58" />
<vehicle id="Car_150" type="MotorCycle" route="route_24" depart="58" />
<vehicle id="MotorCycle_151" type="MotorCycle" route="route_12" depart="59" />
<vehicle id="MotorCycle_152" type="MotorCycle" route="route_17" depart="59" />
<vehicle id="MotorCycle_153" type="MotorCycle" route="route_21" depart="59" />
<vehicle id="Car_154" type="MotorCycle" route="route_22" depart="59" />
<vehicle id="Bus_155" type="MotorCycle" route="route_24" depart="59" />
<vehicle id="Bus_156" type="Auto" route="route_5" depart="60" />
<vehicle id="Bus_157" type="MotorCycle" route="route_5" depart="60" />
<vehicle id="Car_158" type="MotorCycle" route="route_19" depart="60" />
<vehicle id="Bus_159" type="MotorCycle" route="route_21" depart="60" />
<vehicle id="Auto_160" type="MotorCycle" route="route_22" depart="60" />
<vehicle id="Bus_161" type="MotorCycle" route="route_4" depart="61" />
<vehicle id="Auto_162" type="MotorCycle" route="route_21" depart="61" />
<vehicle id="Auto_163" type="MotorCycle" route="route_22" depart="61" />
<vehicle id="Auto_164" type="MotorCycle" route="route_23" depart="61" />
<vehicle id="Car_165" type="MotorCycle" route="route_2" depart="62" />
<vehicle id="Auto_166" type="MotorCycle" route="route_20" depart="62" />
<vehicle id="Bus_167" type="MotorCycle" route="route_21" depart="62" />
<vehicle id="Bus_168" type="Car" route="route_21" depart="62" />
<vehicle id="Car_169" type="MotorCycle" route="route_5" depart="63" />
<vehicle id="Car_170" type="MotorCycle" route="route_19" depart="63" />
<vehicle id="MotorCycle_171" type="MotorCycle" route="route_20" depart="63" />
<vehicle id="Bus_172" type="Bus" route="route_22" depart="63" />
<vehicle id="Bus_173" type="Auto" route="route_22" depart="63" />
<vehicle id="Bus_174" type="MotorCycle" route="route_22" depart="63" />
<vehicle id="Car_175" type="MotorCycle" route="route_24" depart="63" />
<vehicle id="MotorCycle_176" type="MotorCycle" route="route_3" depart="64" />
<vehicle id="Bus_177" type="Auto" route="route_20" depart="64" />
<vehicle id="Bus_178" type="MotorCycle" route="route_20" depart="64" />
<vehicle id="MotorCycle_179" type="MotorCycle" route="route_23" depart="64" />
<vehicle id="MotorCycle_180" type="MotorCycle" route="route_20" depart="65" />
<vehicle id="Bus_181" type="MotorCycle" route="route_12" depart="66" />
<vehicle id="Bus_182" type="Car" route="route_12" depart="66" />
<vehicle id="MotorCycle_183" type="MotorCycle" route="route_19" depart="66" />
<vehicle id="Car_184" type="MotorCycle" route="route_21" depart="66" />
<vehicle id="MotorCycle_185" type="MotorCycle" route="route_22" depart="66" />
<vehicle id="MotorCycle_186" type="Car" route="route_22" depart="66" />
<vehicle id="Auto_187" type="MotorCycle" route="route_24" depart="66" />
<vehicle id="Car_188" type="MotorCycle" route="route_20" depart="67" />
<vehicle id="Car_189" type="Car" route="route_21" depart="67" />
<vehicle id="MotorCycle_190" type="MotorCycle" route="route_5" depart="68" />
<vehicle id="MotorCycle_191" type="MotorCycle" route="route_22" depart="68" />
<vehicle id="MotorCycle_192" type="MotorCycle" route="route_1" depart="69" />
<vehicle id="Bus_193" type="MotorCycle" route="route_23" depart="69" />
<vehicle id="Auto_194" type="MotorCycle" route="route_6" depart="70" />
<vehicle id="Auto_195" type="MotorCycle" route="route_19" depart="70" />
<vehicle id="Auto_196" type="Car" route="route_19" depart="70" />
<vehicle id="Car_197" type="MotorCycle" route="route_22" depart="70" />
<vehicle id="Bus_198" type="MotorCycle" route="route_23" depart="70" />
<vehicle id="Bus_199" type="MotorCycle" route="route_3" depart="71" />
<vehicle id="Car_200" type="MotorCycle" route="route_9" depart="71" />
<vehicle id="MotorCycle_201" type="MotorCycle" route="route_19" depart="71" />
<vehicle id="Bus_202" type="MotorCycle" route="route_21" depart="71" />
<vehicle id="Auto_203" type="MotorCycle" route="route_22" depart="71" />
<vehicle id="Bus_204" type="MotorCycle" route="route_23" depart="72" />
<vehicle id="MotorCycle_205" type="MotorCycle" route="route_24" depart="72" />
<vehicle id="MotorCycle_206" type="Car" route="route_24" depart="72" />
<vehicle id="Bus_207" type="MotorCycle" route="route_21" depart="73" />
<vehicle id="Bus_208" type="Car" route="route_21" depart="73" />
<vehicle id="MotorCycle_209" type="MotorCycle" route="route_24" depart="73" />
<vehicle id="MotorCycle_210" type="Car" route="route_24" depart="73" />
<vehicle id="MotorCycle_211" type="MotorCycle" route="route_16" depart="74" />
<vehicle id="Car_212" type="MotorCycle" route="route_19" depart="74" />
<vehicle id="MotorCycle_213" type="MotorCycle" route="route_22" depart="74" />
<vehicle id="MotorCycle_214" type="MotorCycle" route="route_22" depart="75" />
<vehicle id="Car_215" type="MotorCycle" route="route_23" depart="75" />
<vehicle id="Car_216" type="Car" route="route_23" depart="75" />
<vehicle id="Car_217" type="MotorCycle" route="route_19" depart="76" />
<vehicle id="MotorCycle_218" type="MotorCycle" route="route_3" depart="77" />
<vehicle id="Bus_219" type="MotorCycle" route="route_7" depart="77" />
<vehicle id="Car_220" type="MotorCycle" route="route_10" depart="77" />
<vehicle id="Bus_221" type="MotorCycle" route="route_22" depart="77" />
<vehicle id="MotorCycle_222" type="MotorCycle" route="route_23" depart="77" />
<vehicle id="Auto_223" type="MotorCycle" route="route_24" depart="77" />
<vehicle id="MotorCycle_224" type="MotorCycle" route="route_3" depart="78" />
<vehicle id="MotorCycle_225" type="MotorCycle" route="route_24" depart="78" />
<vehicle id="Bus_226" type="Auto" route="route_4" depart="79" />
<vehicle id="Bus_227" type="Car" route="route_19" depart="79" />
<vehicle id="Car_228" type="Bus" route="route_22" depart="79" />
<vehicle id="Car_229" type="MotorCycle" route="route_22" depart="79" />
<vehicle id="Car_230" type="Bus" route="route_10" depart="80" />
<vehicle id="Car_231" type="MotorCycle" route="route_10" depart="80" />
<vehicle id="Car_232" type="Car" route="route_10" depart="80" />
<vehicle id="Car_233" type="MotorCycle" route="route_8" depart="81" />
<vehicle id="Auto_234" type="MotorCycle" route="route_23" depart="81" />
<vehicle id="Bus_235" type="MotorCycle" route="route_20" depart="82" />
<vehicle id="MotorCycle_236" type="MotorCycle" route="route_22" depart="82" />
<vehicle id="Bus_237" type="MotorCycle" route="route_10" depart="83" />
<vehicle id="Bus_238" type="Car" route="route_10" depart="83" />
<vehicle id="Auto_239" type="MotorCycle" route="route_23" depart="83" />
<vehicle id="Bus_240" type="MotorCycle" route="route_24" depart="83" />
<vehicle id="Auto_241" type="Auto" route="route_6" depart="84" />
<vehicle id="Auto_242" type="Car" route="route_6" depart="84" />
<vehicle id="Auto_243" type="MotorCycle" route="route_22" depart="84" />
<vehicle id="MotorCycle_244" type="MotorCycle" route="route_24" depart="84" />
<vehicle id="MotorCycle_245" type="Car" route="route_24" depart="84" />
<vehicle id="MotorCycle_246" type="MotorCycle" route="route_5" depart="85" />
<vehicle id="Car_247" type="MotorCycle" route="route_19" depart="85" />
<vehicle id="Car_248" type="MotorCycle" route="route_21" depart="85" />
<vehicle id="Auto_249" type="MotorCycle" route="route_3" depart="86" />
<vehicle id="Auto_250" type="MotorCycle" route="route_12" depart="86" />
<vehicle id="Auto_251" type="Car" route="route_12" depart="86" />
<vehicle id="Car_252" type="Bus" route="route_21" depart="86" />
<vehicle id="Car_253" type="MotorCycle" route="route_21" depart="86" />
<vehicle id="Bus_254" type="MotorCycle" route="route_22" depart="86" />
<vehicle id="MotorCycle_255" type="MotorCycle" route="route_23" depart="86" />
<vehicle id="Auto_256" type="MotorCycle" route="route_21" depart="87" />
<vehicle id="Bus_257" type="Auto" route="route_13" depart="88" />
<vehicle id="Bus_258" type="MotorCycle" route="route_13" depart="88" />
<vehicle id="Auto_259" type="MotorCycle" route="route_21" depart="88" />
<vehicle id="Auto_260" type="Car" route="route_21" depart="88" />
<vehicle id="Car_261" type="MotorCycle" route="route_22" depart="88" />
<vehicle id="Bus_262" type="Car" route="route_23" depart="88" />
<vehicle id="Auto_263" type="Auto" route="route_11" depart="89" />
<vehicle id="Bus_264" type="MotorCycle" route="route_20" depart="89" />
<vehicle id="MotorCycle_265" type="MotorCycle" route="route_21" depart="89" />
<vehicle id="Car_266" type="Car" route="route_22" depart="89" />
<vehicle id="Auto_267" type="MotorCycle" route="route_7" depart="90" />
<vehicle id="MotorCycle_268" type="MotorCycle" route="route_12" depart="90" />
<vehicle id="MotorCycle_269" type="Car" route="route_12" depart="90" />
<vehicle id="Auto_270" type="Car" route="route_23" depart="90" />
<vehicle id="Car_271" type="MotorCycle" route="route_9" depart="91" />
<vehicle id="Bus_272" type="MotorCycle" route="route_22" depart="91" />
<vehicle id="MotorCycle_273" type="MotorCycle" route="route_21" depart="92" />
<vehicle id="Car_274" type="MotorCycle" route="route_5" depart="93" />
<vehicle id="Car_275" type="MotorCycle" route="route_9" depart="93" />
<vehicle id="Auto_276" type="MotorCycle" route="route_19" depart="93" />
<vehicle id="Bus_277" type="MotorCycle" route="route_21" depart="93" />
<vehicle id="Auto_278" type="Auto" route="route_22" depart="93" />
<vehicle id="Auto_279" type="MotorCycle" route="route_22" depart="93" />
<vehicle id="MotorCycle_280" type="MotorCycle" route="route_23" depart="93" />
<vehicle id="MotorCycle_281" type="Car" route="route_24" depart="93" />
<vehicle id="Car_282" type="MotorCycle" route="route_19" depart="94" />
<vehicle id="Bus_283" type="Car" route="route_21" depart="94" />
<vehicle id="Auto_284" type="MotorCycle" route="route_23" depart="94" />
<vehicle id="Auto_285" type="MotorCycle" route="route_24" depart="94" />
<vehicle id="Bus_286" type="MotorCycle" route="route_21" depart="95" />
<vehicle id="Auto_287" type="MotorCycle" route="route_4" depart="96" />
<vehicle id="Car_288" type="MotorCycle" route="route_21" depart="96" />
<vehicle id="Car_289" type="MotorCycle" route="route_22" depart="96" />
<vehicle id="Car_290" type="MotorCycle" route="route_10" depart="97" />
<vehicle id="Auto_291" type="MotorCycle" route="route_21" depart="97" />
<vehicle id="Car_292" type="MotorCycle" route="route_22" depart="97" />
<vehicle id="Bus_293" type="MotorCycle" route="route_23" depart="97" />
<vehicle id="Bus_294" type="Auto" route="route_8" depart="98" />
<vehicle id="MotorCycle_295" type="MotorCycle" route="route_21" depart="98" />
<vehicle id="Bus_296" type="MotorCycle" route="route_22" depart="98" />
<vehicle id="Bus_297" type="MotorCycle" route="route_24" depart="98" />
<vehicle id="Auto_298" type="MotorCycle" route="route_13" depart="99" />
<vehicle id="Car_299" type="MotorCycle" route="route_21" depart="99" />
<vehicle id="Car_300" type="Car" route="route_21" depart="99" />
<vehicle id="Bus_301" type="Car" route="route_22" depart="99" />
<vehicle id="Bus_302" type="MotorCycle" route="route_23" depart="99" />
<vehicle id="Car_303" type="MotorCycle" route="route_1" depart="100" />
<vehicle id="MotorCycle_304" type="Auto" route="route_22" depart="100" />
<vehicle id="MotorCycle_305" type="MotorCycle" route="route_22" depart="100" />
<vehicle id="Bus_306" type="MotorCycle" route="route_19" depart="101" />
<vehicle id="Auto_307" type="MotorCycle" route="route_24" depart="101" />
<vehicle id="Car_308" type="Auto" route="route_21" depart="102" />
<vehicle id="Car_309" type="MotorCycle" route="route_21" depart="102" />
<vehicle id="Auto_310" type="MotorCycle" route="route_22" depart="102" />
<vehicle id="MotorCycle_311" type="MotorCycle" route="route_23" depart="102" />
<vehicle id="Auto_312" type="MotorCycle" route="route_20" depart="103" />
<vehicle id="MotorCycle_313" type="Auto" route="route_22" depart="103" />
<vehicle id="MotorCycle_314" type="MotorCycle" route="route_22" depart="103" />
<vehicle id="Car_315" type="Bus" route="route_7" depart="104" />
<vehicle id="Bus_316" type="MotorCycle" route="route_13" depart="104" />
<vehicle id="Bus_317" type="MotorCycle" route="route_19" depart="104" />
<vehicle id="Bus_318" type="MotorCycle" route="route_21" depart="104" />
<vehicle id="Auto_319" type="MotorCycle" route="route_21" depart="105" />
<vehicle id="Auto_320" type="MotorCycle" route="route_24" depart="105" />
<vehicle id="Auto_321" type="MotorCycle" route="route_11" depart="106" />
<vehicle id="Car_322" type="MotorCycle" route="route_22" depart="106" />
<vehicle id="Auto_323" type="Auto" route="route_8" depart="107" />
<vehicle id="Auto_324" type="MotorCycle" route="route_8" depart="107" />
<vehicle id="Auto_325" type="Car" route="route_8" depart="107" />
<vehicle id="Bus_326" type="MotorCycle" route="route_18" depart="107" />
<vehicle id="Bus_327" type="MotorCycle" route="route_22" depart="107" />
<vehicle id="Bus_328" type="Auto" route="route_19" depart="108" />
<vehicle id="Bus_329" type="MotorCycle" route="route_19" depart="108" />
<vehicle id="Car_330" type="MotorCycle" route="route_21" depart="108" />
<vehicle id="Car_331" type="MotorCycle" route="route_14" depart="109" />
<vehicle id="MotorCycle_332" type="Car" route="route_4" depart="110" />
<vehicle id="Auto_333" type="Auto" route="route_1" depart="111" />
<vehicle id="Auto_334" type="MotorCycle" route="route_1" depart="111" />
<vehicle id="Auto_335" type="Car" route="route_12" depart="111" />
<vehicle id="Auto_336" type="MotorCycle" route="route_22" depart="111" />
<vehicle id="Bus_337" type="MotorCycle" route="route_24" depart="111" />
<vehicle id="Car_338" type="MotorCycle" route="route_19" depart="112" />
<vehicle id="Bus_339" type="MotorCycle" route="route_21" depart="112" />
<vehicle id="Car_340" type="MotorCycle" route="route_7" depart="113" />
<vehicle id="MotorCycle_341" type="MotorCycle" route="route_12" depart="113" />
<vehicle id="MotorCycle_342" type="Car" route="route_12" depart="113" />
<vehicle id="MotorCycle_343" type="MotorCycle" route="route_22" depart="113" />
<vehicle id="Auto_344" type="MotorCycle" route="route_9" depart="114" />
<vehicle id="Bus_345" type="Auto" route="route_24" depart="115" />
<vehicle id="Bus_346" type="MotorCycle" route="route_24" depart="115" />
<vehicle id="Auto_347" type="MotorCycle" route="route_5" depart="116" />
<vehicle id="MotorCycle_348" type="MotorCycle" route="route_10" depart="116" />
<vehicle id="Bus_349" type="Car" route="route_21" depart="116" />
<vehicle id="Bus_350" type="MotorCycle" route="route_22" depart="116" />
<vehicle id="Car_351" type="MotorCycle" route="route_4" depart="117" />
<vehicle id="Car_352" type="MotorCycle" route="route_21" depart="117" />
<vehicle id="Auto_353" type="MotorCycle" route="route_23" depart="117" />
<vehicle id="Bus_354" type="MotorCycle" route="route_23" depart="118" />
<vehicle id="Bus_355" type="MotorCycle" route="route_19" depart="119" />
<vehicle id="MotorCycle_356" type="MotorCycle" route="route_22" depart="119" />
<vehicle id="Bus_357" type="MotorCycle" route="route_22" depart="120" />
<vehicle id="Bus_358" type="MotorCycle" route="route_20" depart="121" />
<vehicle id="Bus_359" type="Car" route="route_20" depart="121" />
<vehicle id="Bus_360" type="MotorCycle" route="route_21" depart="121" />
<vehicle id="Car_361" type="MotorCycle" route="route_22" depart="121" />
<vehicle id="Bus_362" type="MotorCycle" route="route_6" depart="123" />
<vehicle id="MotorCycle_363" type="MotorCycle" route="route_19" depart="123" />
<vehicle id="MotorCycle_364" type="Auto" route="route_21" depart="123" />
<vehicle id="MotorCycle_365" type="MotorCycle" route="route_21" depart="123" />
<vehicle id="MotorCycle_366" type="MotorCycle" route="route_22" depart="123" />
<vehicle id="Car_367" type="MotorCycle" route="route_23" depart="123" />
<vehicle id="Bus_368" type="Bus" route="route_21" depart="124" />
<vehicle id="Bus_369" type="MotorCycle" route="route_22" depart="124" />
<vehicle id="Bus_370" type="MotorCycle" route="route_19" depart="125" />
<vehicle id="Bus_371" type="MotorCycle" route="route_21" depart="125" />
<vehicle id="MotorCycle_372" type="MotorCycle" route="route_24" depart="125" />
<vehicle id="Bus_373" type="MotorCycle" route="route_19" depart="126" />
<vehicle id="Bus_374" type="Car" route="route_19" depart="126" />