<routes>
<vType id="Bus" accel="0.6" decel="3.5" sigma="0.5" length="10.1" minGap="1.0" maxSpeed="16.67" guiShape="bus" width="2.45" latAlignment="left" laneChangeModel="SL2015" lcStrategic="0.5" lcCooperative="0.0"/>
<vType id="Auto" accel="0.7" decel="4.5" sigma="0.5" length="2.6" minGap="0.3" maxSpeed="16" guiShape="passenger/sedan" width="1.25" latAlignment="left" laneChangeModel="SL2015" lcStrategic="0.5" lcCooperative="0.0" />
<vType id="MotorCycle" accel="0.9" decel="3.5" sigma="0.5" length="1.85" minGap="0.15" maxSpeed="17" guiShape="motorcycle" width="0.7" latAlignment="left" laneChangeModel="SL2015" lcStrategic="0.5" lcCooperative="0.0"/>
<vType id="Car" accel="0.8" decel="4.5" sigma="0.5" length="3.6" minGap="0.5" maxSpeed="40" guiShape="passenger" width="1.5" latAlignment="left" laneChangeModel="SL2015" lcStrategic="0.5" lcCooperative="0.0"/>
<vType id="emergency" accel="0.8" decel="4.5" sigma="0.5" length="3.6" minGap="0.5" maxSpeed="80" carFollowModel="IDM" guiShape="emergency" width="1.5" latAlignment="left" laneChangeModel="SL2015" lcStrategic="0.5" lcCooperative="0.0" vClass="emergency"/>
<route id="route_0" edges="1i 52i gneE0 gneE2" />
<route id="route_1" edges="-gneE2 -gneE0 52o 2i 1o" />
        <route id="route_2" edges="4i 3o" />
        <route id="route_3" edges="3i 4o" />
        <route id="route_4" edges="-gneE1 gneE3" />
        <route id="route_5" edges="4i 1o" />
        <route id="route_6" edges="4i 2o 52i gneE0 gneE1" />
        <route id="route_7" edges="2i 4o" />
        <route id="route_8" edges="2i 3o" />
        <route id="route_9" edges="-gneE1 gneE3" />
        <route id="route_10" edges="3i 2o 52i gneE0 gneE3" />
        <route id="route_11" edges="3i 1o" />
        <route id="route_12" edges="-gneE1 -gneE0 52o 2i 4o" />
        <route id="route_13" edges="-gneE1 gneE2" />
        <route id="route_14" edges="-gneE2 gneE1" />
        <route id="route_15" edges="-gneE2 gneE3" />
        <route id="route_16" edges="-gneE3 -gneE0 52o 2i 3o" />
        <route id="route_17" edges="-gneE3 gneE2" />
        <route id="route_18" edges="gneE0 gneE3" />
        <route id="route_19" edges="gneE0 gneE1" />

	<route id="route_20" edges="gneE0"/>
<vehicle id="Bus_0" type="MotorCycle" route="route_12" depart="3" />
<vehicle id="MotorCycle_1" type="MotorCycle" route="route_2" depart="7" />
<vehicle id="MotorCycle_2" type="MotorCycle" route="route_11" depart="10" />
<vehicle id="MotorCycle_3" type="Car" route="route_11" depart="10" />
<vehicle id="Auto_4" type="MotorCycle" route="route_10" depart="12" />
<vehicle id="Auto_5" type="MotorCycle" route="route_16" depart="13" />
<vehicle id="Bus_6" type="MotorCycle" route="route_1" depart="14" />
<vehicle id="MotorCycle_7" type="MotorCycle" route="route_14" depart="20" />
<vehicle id="MotorCycle_8" type="Car" route="route_14" depart="20" />
<vehicle id="Car_9" type="MotorCycle" route="route_2" depart="23" />
<vehicle id="Auto_10" type="Bus" route="route_15" depart="24" />
<vehicle id="Auto_11" type="MotorCycle" route="route_15" depart="24" />
<vehicle id="Auto_12" type="Car" route="route_15" depart="24" />
<vehicle id="Bus_13" type="MotorCycle" route="route_4" depart="30" />
<vehicle id="Bus_14" type="Car" route="route_4" depart="30" />
<vehicle id="Auto_15" type="MotorCycle" route="route_17" depart="36" />
<vehicle id="MotorCycle_16" type="MotorCycle" route="route_5" depart="37" />
<vehicle id="Auto_17" type="Bus" route="route_8" depart="38" />
<vehicle id="Auto_18" type="MotorCycle" route="route_17" depart="43" />
<vehicle id="MotorCycle_19" type="MotorCycle" route="route_8" depart="53" />
<vehicle id="MotorCycle_20" type="MotorCycle" route="route_2" depart="56" />
<vehicle id="MotorCycle_21" type="MotorCycle" route="route_14" depart="62" />
<vehicle id="Car_22" type="MotorCycle" route="route_5" depart="74" />
<vehicle id="Car_23" type="MotorCycle" route="route_20" depart="89" />
<vehicle id="MotorCycle_24" type="MotorCycle" route="route_16" depart="98" />
<vehicle id="Bus_25" type="MotorCycle" route="route_5" depart="100" />
<vehicle id="MotorCycle_26" type="MotorCycle" route="route_1" depart="104" />
<vehicle id="Auto_27" type="MotorCycle" route="route_12" depart="107" />
<vehicle id="Auto_28" type="Car" route="route_12" depart="107" />
<vehicle id="Auto_29" type="MotorCycle" route="route_15" depart="107" />
<vehicle id="Auto_30" type="Car" route="route_15" depart="107" />
<vehicle id="Bus_31" type="MotorCycle" route="route_7" depart="109" />
<vehicle id="MotorCycle_32" type="MotorCycle" route="route_11" depart="111" />
<vehicle id="Car_33" type="MotorCycle" route="route_7" depart="120" />
<vehicle id="Car_34" type="Car" route="route_7" depart="120" />
<vehicle id="Auto_35" type="MotorCycle" route="route_14" depart="123" />
<vehicle id="Auto_36" type="Car" route="route_14" depart="123" />
<vehicle id="MotorCycle_37" type="MotorCycle" route="route_20" depart="123" />
<vehicle id="Car_38" type="MotorCycle" route="route_6" depart="128" />
<vehicle id="Car_39" type="MotorCycle" route="route_10" depart="130" />
<vehicle id="Auto_40" type="MotorCycle" route="route_13" depart="130" />
<vehicle id="Bus_41" type="MotorCycle" route="route_3" depart="135" />
<vehicle id="Auto_42" type="MotorCycle" route="route_12" depart="135" />
<vehicle id="Bus_43" type="MotorCycle" route="route_5" depart="138" />
<vehicle id="Auto_44" type="MotorCycle" route="route_4" depart="150" />
<vehicle id="Auto_45" type="Car" route="route_4" depart="150" />
<vehicle id="Bus_46" type="MotorCycle" route="route_13" depart="152" />
<vehicle id="Bus_47" type="Car" route="route_13" depart="152" />
<vehicle id="Bus_48" type="MotorCycle" route="route_5" depart="159" />
<vehicle id="Car_49" type="MotorCycle" route="route_6" depart="163" />
<vehicle id="Car_50" type="Car" route="route_6" depart="163" />
<vehicle id="Car_51" type="Auto" route="route_2" depart="177" />
<vehicle id="Car_52" type="MotorCycle" route="route_2" depart="177" />
<vehicle id="MotorCycle_53" type="Auto" route="route_1" depart="179" />
<vehicle id="MotorCycle_54" type="Car" route="route_1" depart="179" />
<vehicle id="MotorCycle_55" type="MotorCycle" route="route_2" depart="197" />
<vehicle id="Auto_56" type="MotorCycle" route="route_2" depart="204" />
<vehicle id="Auto_57" type="Car" route="route_2" depart="204" />
<vehicle id="Auto_58" type="MotorCycle" route="route_18" depart="215" />
<vehicle id="MotorCycle_59" type="MotorCycle" route="route_8" depart="219" />
<vehicle id="MotorCycle_60" type="MotorCycle" route="route_2" depart="226" />
<vehicle id="Car_61" type="Bus" route="route_13" depart="234" />
<vehicle id="Car_62" type="MotorCycle" route="route_13" depart="234" />
<vehicle id="Bus_63" type="MotorCycle" route="route_8" depart="237" />
<vehicle id="Bus_64" type="Car" route="route_8" depart="237" />
<vehicle id="MotorCycle_65" type="MotorCycle" route="route_19" depart="245" />
<vehicle id="Auto_66" type="MotorCycle" route="route_18" depart="247" />
<vehicle id="Auto_67" type="Car" route="route_18" depart="247" />
<vehicle id="MotorCycle_68" type="Auto" route="route_18" depart="248" />
<vehicle id="Car_69" type="MotorCycle" route="route_11" depart="252" />
<vehicle id="Auto_70" type="MotorCycle" route="route_14" depart="258" />
<vehicle id="MotorCycle_71" type="MotorCycle" route="route_10" depart="261" />
<vehicle id="MotorCycle_72" type="Car" route="route_10" depart="261" />
<vehicle id="Auto_73" type="MotorCycle" route="route_15" depart="261" />
<vehicle id="Bus_74" type="MotorCycle" route="route_3" depart="268" />
<vehicle id="Auto_75" type="MotorCycle" route="route_18" depart="289" />
<vehicle id="Auto_76" type="MotorCycle" route="route_5" depart="299" />
<vehicle id="Auto_77" type="MotorCycle" route="route_10" depart="299" />
<vehicle id="Car_78" type="MotorCycle" route="route_20" depart="306" />
<vehicle id="Auto_79" type="MotorCycle" route="route_17" depart="316" />
<vehicle id="MotorCycle_80" type="MotorCycle" route="route_17" depart="317" />
<vehicle id="Car_81" type="MotorCycle" route="route_4" depart="319" />
<vehicle id="Bus_82" type="MotorCycle" route="route_10" depart="339" />
<vehicle id="Auto_83" type="MotorCycle" route="route_1" depart="344" />
<vehicle id="Car_84" type="Car" route="route_8" depart="349" />
<vehicle id="Bus_85" type="MotorCycle" route="route_2" depart="350" />
<vehicle id="Car_86" type="MotorCycle" route="route_1" depart="353" />
<vehicle id="MotorCycle_87" type="MotorCycle" route="route_4" depart="359" />
<vehicle id="Bus_88" type="MotorCycle" route="route_19" depart="365" />
<vehicle id="Bus_89" type="MotorCycle" route="route_10" depart="368" />
<vehicle id="Auto_90" type="MotorCycle" route="route_4" depart="383" />
<vehicle id="Bus_91" type="MotorCycle" route="route_12" depart="388" />
<vehicle id="MotorCycle_92" type="MotorCycle" route="route_16" depart="394" />
<vehicle id="MotorCycle_93" type="Car" route="route_16" depart="394" />
<vehicle id="Bus_94" type="MotorCycle" route="route_12" depart="395" />
<vehicle id="Car_95" type="MotorCycle" route="route_16" depart="398" />
<vehicle id="Bus_96" type="MotorCycle" route="route_16" depart="405" />
<vehicle id="Auto_97" type="MotorCycle" route="route_13" depart="409" />
<vehicle id="Car_98" type="MotorCycle" route="route_20" depart="409" />
<vehicle id="Car_99" type="MotorCycle" route="route_11" depart="414" />
<vehicle id="Car_100" type="MotorCycle" route="route_20" depart="418" />
<vehicle id="Auto_101" type="MotorCycle" route="route_11" depart="419" />
<vehicle id="Auto_102" type="Car" route="route_11" depart="419" />
<vehicle id="MotorCycle_103" type="MotorCycle" route="route_20" depart="425" />
<vehicle id="MotorCycle_104" type="MotorCycle" route="route_15" depart="427" />
<vehicle id="Auto_105" type="MotorCycle" route="route_3" depart="430" />
<vehicle id="Car_106" type="MotorCycle" route="route_2" depart="439" />
<vehicle id="Car_107" type="Car" route="route_2" depart="439" />
<vehicle id="MotorCycle_108" type="MotorCycle" route="route_4" depart="447" />
<vehicle id="Car_109" type="MotorCycle" route="route_9" depart="448" />
<vehicle id="Car_110" type="MotorCycle" route="route_12" depart="454" />
<vehicle id="Auto_111" type="MotorCycle" route="route_17" depart="461" />
<vehicle id="MotorCycle_112" type="MotorCycle" route="route_2" depart="467" />
<vehicle id="Auto_113" type="Car" route="route_20" depart="473" />
<vehicle id="Bus_114" type="MotorCycle" route="route_8" depart="477" />
<vehicle id="Auto_115" type="MotorCycle" route="route_11" depart="477" />
<vehicle id="MotorCycle_116" type="MotorCycle" route="route_16" depart="483" />
<vehicle id="MotorCycle_117" type="MotorCycle" route="route_1" depart="484" />
<vehicle id="MotorCycle_118" type="MotorCycle" route="route_15" depart="485" />
<vehicle id="MotorCycle_119" type="MotorCycle" route="route_12" depart="490" />
<vehicle id="MotorCycle_120" type="MotorCycle" route="route_16" depart="493" />
<vehicle id="MotorCycle_121" type="Car" route="route_16" depart="493" />
<vehicle id="MotorCycle_122" type="MotorCycle" route="route_9" depart="504" />
<vehicle id="Bus_123" type="MotorCycle" route="route_12" depart="506" />
<vehicle id="Auto_124" type="MotorCycle" route="route_15" depart="509" />
<vehicle id="Auto_125" type="MotorCycle" route="route_17" depart="510" />
<vehicle id="MotorCycle_126" type="MotorCycle" route="route_6" depart="516" />
<vehicle id="MotorCycle_127" type="MotorCycle" route="route_17" depart="531" />
<vehicle id="MotorCycle_128" type="MotorCycle" route="route_12" depart="533" />
<vehicle id="Auto_129" type="MotorCycle" route="route_14" depart="534" />
<vehicle id="Auto_130" type="MotorCycle" route="route_1" depart="535" />
<vehicle id="Car_131" type="Auto" route="route_10" depart="538" />
<vehicle id="Car_132" type="MotorCycle" route="route_10" depart="538" />
<vehicle id="Car_133" type="Car" route="route_10" depart="538" />
<vehicle id="MotorCycle_134" type="MotorCycle" route="route_1" depart="542" />
<vehicle id="Car_135" type="MotorCycle" route="route_11" depart="545" />
<vehicle id="Car_136" type="Car" route="route_11" depart="545" />
<vehicle id="Auto_137" type="MotorCycle" route="route_4" depart="546" />
<vehicle id="Auto_138" type="MotorCycle" route="route_14" depart="546" />
<vehicle id="Car_139" type="MotorCycle" route="route_14" depart="547" />
<vehicle id="Bus_140" type="MotorCycle" route="route_18" depart="548" />
<vehicle id="Car_141" type="MotorCycle" route="route_11" depart="559" />
<vehicle id="MotorCycle_142" type="MotorCycle" route="route_14" depart="560" />
<vehicle id="MotorCycle_143" type="MotorCycle" route="route_13" depart="595" />
<vehicle id="MotorCycle_144" type="Car" route="route_13" depart="595" />
<vehicle id="Auto_145" type="MotorCycle" route="route_8" depart="598" />
<vehicle id="Bus_146" type="MotorCycle" route="route_4" depart="602" />
<vehicle id="MotorCycle_147" type="Auto" route="route_13" depart="608" />
<vehicle id="Auto_148" type="MotorCycle" route="route_9" depart="611" />
<vehicle id="Bus_149" type="Car" route="route_18" depart="612" />
<vehicle id="MotorCycle_150" type="MotorCycle" route="route_11" depart="614" />
<vehicle id="Car_151" type="MotorCycle" route="route_14" depart="639" />
<vehicle id="Car_152" type="MotorCycle" route="route_1" depart="640" />
<vehicle id="Bus_153" type="MotorCycle" route="route_13" depart="645" />
<vehicle id="Bus_154" type="Car" route="route_13" depart="645" />
<vehicle id="Bus_155" type="MotorCycle" route="route_14" depart="646" />
<vehicle id="Bus_156" type="MotorCycle" route="route_2" depart="651" />
<vehicle id="Auto_157" type="MotorCycle" route="route_5" depart="653" />
<vehicle id="Auto_158" type="MotorCycle" route="route_18" depart="656" />
<vehicle id="Auto_159" type="MotorCycle" route="route_5" depart="658" />
<vehicle id="Auto_160" type="MotorCycle" route="route_15" depart="659" />
<vehicle id="MotorCycle_161" type="Car" route="route_14" depart="668" />
<vehicle id="Bus_162" type="MotorCycle" route="route_2" depart="672" />
<vehicle id="MotorCycle_163" type="MotorCycle" route="route_10" depart="672" />
<vehicle id="MotorCycle_164" type="Bus" route="route_9" depart="686" />
<vehicle id="MotorCycle_165" type="MotorCycle" route="route_9" depart="686" />
<vehicle id="Bus_166" type="MotorCycle" route="route_2" depart="688" />
<vehicle id="Bus_167" type="MotorCycle" route="route_9" depart="689" />
<vehicle id="Bus_168" type="MotorCycle" route="route_10" depart="691" />
<vehicle id="Car_169" type="MotorCycle" route="route_19" depart="700" />
<vehicle id="Car_170" type="MotorCycle" route="route_14" depart="703" />
<vehicle id="Auto_171" type="Auto" route="route_15" depart="727" />
<vehicle id="Auto_172" type="MotorCycle" route="route_15" depart="727" />
<vehicle id="MotorCycle_173" type="MotorCycle" route="route_8" depart="730" />
<vehicle id="MotorCycle_174" type="Car" route="route_8" depart="730" />
<vehicle id="Bus_175" type="MotorCycle" route="route_3" depart="735" />
<vehicle id="Auto_176" type="Car" route="route_20" depart="740" />
<vehicle id="Bus_177" type="MotorCycle" route="route_19" depart="743" />
<vehicle id="Bus_178" type="Car" route="route_19" depart="743" />
<vehicle id="MotorCycle_179" type="MotorCycle" route="route_9" depart="744" />
<vehicle id="MotorCycle_180" type="Auto" route="route_4" depart="745" />
<vehicle id="MotorCycle_181" type="MotorCycle" route="route_4" depart="745" />
<vehicle id="MotorCycle_182" type="MotorCycle" route="route_1" depart="762" />
<vehicle id="Bus_183" type="MotorCycle" route="route_2" depart="764" />
<vehicle id="MotorCycle_184" type="MotorCycle" route="route_18" depart="767" />
<vehicle id="MotorCycle_185" type="Car" route="route_18" depart="767" />
<vehicle id="MotorCycle_186" type="MotorCycle" route="route_20" depart="769" />
<vehicle id="MotorCycle_187" type="Car" route="route_20" depart="769" />
<vehicle id="MotorCycle_188" type="MotorCycle" route="route_18" depart="772" />
<vehicle id="MotorCycle_189" type="Car" route="route_18" depart="772" />
<vehicle id="Bus_190" type="MotorCycle" route="route_3" depart="774" />
<vehicle id="Bus_191" type="Car" route="route_3" depart="774" />
<vehicle id="MotorCycle_192" type="MotorCycle" route="route_18" depart="776" />
<vehicle id="Bus_193" type="MotorCycle" route="route_17" depart="778" />
<vehicle id="Bus_194" type="MotorCycle" route="route_16" depart="782" />
<vehicle id="MotorCycle_195" type="MotorCycle" route="route_7" depart="784" />
<vehicle id="Bus_196" type="MotorCycle" route="route_5" depart="791" />
<vehicle id="Bus_197" type="MotorCycle" route="route_2" depart="801" />
<vehicle id="Bus_198" type="MotorCycle" route="route_8" depart="827" />
<vehicle id="MotorCycle_199" type="MotorCycle" route="route_11" depart="829" />
<vehicle id="Bus_200" type="MotorCycle" route="route_14" depart="830" />
<vehicle id="Bus_201" type="Car" route="route_14" depart="830" />
<vehicle id="Auto_202" type="MotorCycle" route="route_17" depart="834" />
<vehicle id="Auto_203" type="MotorCycle" route="route_11" depart="839" />
<vehicle id="Auto_204" type="Car" route="route_11" depart="839" />
<vehicle id="Auto_205" type="MotorCycle" route="route_14" depart="842" />
<vehicle id="Auto_206" type="Car" route="route_14" depart="842" />
<vehicle id="Auto_207" type="MotorCycle" route="route_11" depart="854" />
<vehicle id="Bus_208" type="MotorCycle" route="route_12" depart="855" />
<vehicle id="Bus_209" type="MotorCycle" route="route_4" depart="857" />
<vehicle id="Bus_210" type="Car" route="route_4" depart="857" />
<vehicle id="MotorCycle_211" type="MotorCycle" route="route_10" depart="860" />
<vehicle id="Auto_212" type="MotorCycle" route="route_13" depart="865" />
<vehicle id="Car_213" type="MotorCycle" route="route_9" depart="867" />
<vehicle id="MotorCycle_214" type="MotorCycle" route="route_16" depart="871" />
<vehicle id="Car_215" type="MotorCycle" route="route_2" depart="875" />
<vehicle id="Car_216" type="Car" route="route_2" depart="875" />
<vehicle id="Auto_217" type="MotorCycle" route="route_10" depart="882" />
<vehicle id="Auto_218" type="MotorCycle" route="route_7" depart="883" />
<vehicle id="Auto_219" type="Car" route="route_7" depart="883" />
<vehicle id="Bus_220" type="MotorCycle" route="route_13" depart="886" />
<vehicle id="Auto_221" type="MotorCycle" route="route_2" depart="897" />
<!-- totalCars="222 -->
<!-- CarsPerDirection="{} -->
</routes>
