<routes>
<vType id="Bus" accel="0.6" decel="3.5" sigma="0.5" length="10.1" minGap="1.0" maxSpeed="16.67" carFollowModel="Wiedemann" guiShape="bus" width="2.45" latAlignment="left" laneChangeModel="SL2015" lcStrategic="0.5" lcCooperative="0.0"/>
<vType id="Auto" accel="0.7" decel="4.5" sigma="0.5" length="2.6" minGap="0.3" maxSpeed="16" carFollowModel="Wiedemann" guiShape="passenger/sedan" width="1.25" latAlignment="left" laneChangeModel="SL2015" lcStrategic="0.5" lcCooperative="0.0" />
<vType id="MotorCycle" accel="0.9" decel="3.5" sigma="0.5" length="1.85" minGap="0.15"  carFollowModel="Wiedemann" maxSpeed="17" guiShape="motorcycle" width="0.7" latAlignment="left" laneChangeModel="SL2015" lcStrategic="0.5" lcCooperative="0.0"/>
<vType id="Car" accel="0.8" decel="4.5" sigma="0.5" length="3.6" minGap="0.5" maxSpeed="40" carFollowModel="Wiedemann" guiShape="passenger" width="1.5" latAlignment="left" laneChangeModel="SL2015" lcStrategic="0.5" lcCooperative="0.0"/>
<vType id="emergency" accel="2.8" decel="5.5" sigma="0.5" length="3.6" minGap="0.5" maxSpeed="120.6" carFollowModel="Wiedemann" guiShape="emergency" width="1.5" latAlignment="left" laneChangeModel="SL2015" lcStrategic="0.5" lcCooperative="0.0" vClass="emergency" speedFactor="1.9" jmDriveAfterRedTime="300" jmDriveAfterRedSpeed="5.56">
<param key="has.bluelight.device" value="true"/>
<param key="has.fcd.device" value="true"/> 
</vType>
<route id="route_0" edges="1i 52i gneE0 gneE2" />
<route id="route_1" edges="-gneE2 -gneE0 52o 2i 1o" />
        <route id="route_2" edges="4i 3o" />
        <route id="route_3" edges="3i 4o" />
        <route id="route_4" edges="-gneE1 gneE3" /> 
        <route id="route_5" edges="4i 1o" />
        <route id="route_6" edges="4i 2o 52i gneE0 gneE1" />
        <route id="route_7" edges="2i 4o" />
        <route id="route_8" edges="2i 3o" />
        <route id="route_9" edges="-gneE1 gneE3" />
        <route id="route_10" edges="3i 2o 52i gneE0 gneE3" />
        <route id="route_11" edges="3i 1o" />
        <route id="route_12" edges="-gneE1 -gneE0 52o 2i 4o" />
        <route id="route_13" edges="-gneE1 gneE2" />
        <route id="route_14" edges="-gneE2 gneE1" />
        <route id="route_15" edges="-gneE2 gneE3" />
        <route id="route_16" edges="-gneE3 -gneE0 52o 2i 3o" />
        <route id="route_17" edges="-gneE3 gneE2" />
        <route id="route_18" edges="gneE0 gneE3" />
        <route id="route_19" edges="gneE0 gneE1" />
        <route id="route_20" edges="1i 2o 52i gneE0 gneE2 -gneE4 gneE5" />
        <route id="route_21" edges="-gneE5 gneE4 -gneE2 -gneE0 52o 2i 1o" />
        <route id="route_22" edges="-gneE5 gneE4 -gneE2 -gneE0 52o 2i 3o" />
        <route id="route_23" edges="1i 2o 52i gneE0 gneE2 -gneE4 gneE7" />

	<route id="route_24" edges="gneE0"/>
<vehicle id="emergency_0" type="emergency" route="route_4" depart="0" />
<vehicle id="Bus_0" type="Bus" route="route_4" depart="0" />
<vehicle id="Car_0" type="Car" route="route_16" depart="0" />
<vehicle id="Bus_1" type="MotorCycle" route="route_3" depart="1" />
<vehicle id="Bus_2" type="MotorCycle" route="route_4" depart="1" />
<vehicle id="Car_3" type="MotorCycle" route="route_7" depart="1" />
<vehicle id="Bus_4" type="MotorCycle" route="route_12" depart="1" />
<vehicle id="Auto_5" type="MotorCycle" route="route_21" depart="1" />
<vehicle id="Bus_6" type="MotorCycle" route="route_24" depart="1" />
<vehicle id="Bus_7" type="Car" route="route_24" depart="1" />
<vehicle id="Bus_8" type="MotorCycle" route="route_9" depart="2" />
<vehicle id="Car_9" type="MotorCycle" route="route_22" depart="2" />
<vehicle id="Auto_10" type="MotorCycle" route="route_19" depart="3" />
<vehicle id="Bus_11" type="MotorCycle" route="route_20" depart="3" />
<vehicle id="Auto_12" type="MotorCycle" route="route_21" depart="3" />
<vehicle id="MotorCycle_13" type="MotorCycle" route="route_22" depart="3" />
<vehicle id="Car_14" type="MotorCycle" route="route_4" depart="4" />
<vehicle id="Bus_15" type="MotorCycle" route="route_20" depart="4" />
<vehicle id="MotorCycle_16" type="MotorCycle" route="route_21" depart="4" />
<vehicle id="Bus_17" type="MotorCycle" route="route_24" depart="4" />
<vehicle id="Auto_18" type="MotorCycle" route="route_20" depart="5" />
<vehicle id="Car_19" type="MotorCycle" route="route_22" depart="5" />
<vehicle id="Car_20" type="MotorCycle" route="route_12" depart="6" />
<vehicle id="Auto_21" type="MotorCycle" route="route_21" depart="6" />
<vehicle id="MotorCycle_22" type="MotorCycle" route="route_24" depart="6" />
<vehicle id="Auto_23" type="Car" route="route_3" depart="7" />
<vehicle id="Bus_24" type="MotorCycle" route="route_21" depart="7" />
<vehicle id="Car_25" type="MotorCycle" route="route_22" depart="8" />
<vehicle id="MotorCycle_26" type="MotorCycle" route="route_23" depart="8" />
<vehicle id="Bus_27" type="MotorCycle" route="route_21" depart="9" />
<vehicle id="Auto_28" type="MotorCycle" route="route_24" depart="9" />
<vehicle id="Bus_29" type="MotorCycle" route="route_10" depart="10" />
<vehicle id="Car_30" type="MotorCycle" route="route_22" depart="10" />
<vehicle id="Car_31" type="MotorCycle" route="route_23" depart="10" />
<vehicle id="Bus_32" type="MotorCycle" route="route_4" depart="11" />
<vehicle id="Car_33" type="MotorCycle" route="route_20" depart="11" />
<vehicle id="Car_34" type="MotorCycle" route="route_22" depart="11" />
<vehicle id="Car_35" type="MotorCycle" route="route_7" depart="12" />
<vehicle id="Auto_36" type="MotorCycle" route="route_10" depart="12" />
<vehicle id="Auto_37" type="Car" route="route_10" depart="12" />
<vehicle id="Car_38" type="MotorCycle" route="route_21" depart="12" />
<vehicle id="Auto_39" type="MotorCycle" route="route_23" depart="12" />
<vehicle id="MotorCycle_40" type="MotorCycle" route="route_4" depart="13" />
<vehicle id="Auto_41" type="MotorCycle" route="route_10" depart="13" />
<vehicle id="MotorCycle_42" type="MotorCycle" route="route_16" depart="13" />
<vehicle id="Car_43" type="MotorCycle" route="route_20" depart="13" />
<vehicle id="Car_44" type="MotorCycle" route="route_24" depart="13" />
<vehicle id="Auto_45" type="MotorCycle" route="route_8" depart="14" />
<vehicle id="Bus_46" type="MotorCycle" route="route_21" depart="14" />
<vehicle id="Bus_47" type="Car" route="route_21" depart="14" />
<vehicle id="MotorCycle_48" type="MotorCycle" route="route_19" depart="15" />
<vehicle id="Auto_49" type="MotorCycle" route="route_22" depart="15" />
<vehicle id="Bus_50" type="Auto" route="route_24" depart="15" />
<vehicle id="Bus_51" type="MotorCycle" route="route_24" depart="15" />
<vehicle id="Auto_52" type="MotorCycle" route="route_6" depart="16" />
<vehicle id="MotorCycle_53" type="MotorCycle" route="route_7" depart="16" />
<vehicle id="MotorCycle_54" type="MotorCycle" route="route_23" depart="16" />
<vehicle id="Car_55" type="MotorCycle" route="route_22" depart="17" />
<vehicle id="Auto_56" type="MotorCycle" route="route_23" depart="17" />
<vehicle id="Car_57" type="MotorCycle" route="route_3" depart="18" />
<vehicle id="Car_58" type="Car" route="route_3" depart="18" />
<vehicle id="Car_59" type="MotorCycle" route="route_21" depart="19" />
<vehicle id="MotorCycle_60" type="MotorCycle" route="route_10" depart="20" />
<vehicle id="Car_61" type="MotorCycle" route="route_20" depart="20" />
<vehicle id="Bus_62" type="MotorCycle" route="route_22" depart="20" />
<vehicle id="Car_63" type="MotorCycle" route="route_21" depart="21" />
<vehicle id="Bus_64" type="MotorCycle" route="route_24" depart="22" />
<vehicle id="MotorCycle_65" type="MotorCycle" route="route_20" depart="23" />
<vehicle id="Bus_66" type="MotorCycle" route="route_21" depart="23" />
<vehicle id="Bus_67" type="MotorCycle" route="route_22" depart="23" />
<vehicle id="Auto_68" type="MotorCycle" route="route_24" depart="23" />
<vehicle id="Car_69" type="Auto" route="route_2" depart="24" />
<vehicle id="Car_70" type="MotorCycle" route="route_2" depart="24" />
<vehicle id="Auto_71" type="Auto" route="route_8" depart="24" />
<vehicle id="Auto_72" type="MotorCycle" route="route_8" depart="24" />
<vehicle id="Car_73" type="MotorCycle" route="route_17" depart="24" />
<vehicle id="Bus_74" type="MotorCycle" route="route_21" depart="24" />
<vehicle id="Auto_75" type="MotorCycle" route="route_23" depart="24" />
<vehicle id="Bus_76" type="MotorCycle" route="route_22" depart="25" />
<vehicle id="Bus_77" type="Car" route="route_22" depart="25" />
<vehicle id="Car_78" type="MotorCycle" route="route_23" depart="25" />
<vehicle id="Bus_79" type="Auto" route="route_16" depart="26" />
<vehicle id="Bus_80" type="MotorCycle" route="route_16" depart="26" />
<vehicle id="Bus_81" type="MotorCycle" route="route_12" depart="27" />
<vehicle id="Bus_82" type="Car" route="route_12" depart="27" />
<vehicle id="Car_83" type="MotorCycle" route="route_21" depart="27" />
<vehicle id="Bus_84" type="MotorCycle" route="route_22" depart="27" />
<vehicle id="Auto_85" type="Bus" route="route_23" depart="27" />
<vehicle id="Auto_86" type="MotorCycle" route="route_23" depart="27" />
<vehicle id="Auto_87" type="Car" route="route_23" depart="27" />
<vehicle id="MotorCycle_88" type="MotorCycle" route="route_4" depart="28" />
<vehicle id="MotorCycle_89" type="Car" route="route_4" depart="28" />
<vehicle id="MotorCycle_90" type="MotorCycle" route="route_9" depart="28" />
<vehicle id="Bus_91" type="MotorCycle" route="route_22" depart="28" />
<vehicle id="MotorCycle_92" type="Auto" route="route_7" depart="30" />
<vehicle id="MotorCycle_93" type="MotorCycle" route="route_7" depart="30" />
<vehicle id="Auto_94" type="MotorCycle" route="route_12" depart="30" />
<vehicle id="Auto_95" type="Car" route="route_12" depart="30" />
<vehicle id="MotorCycle_96" type="MotorCycle" route="route_20" depart="30" />
<vehicle id="MotorCycle_97" type="MotorCycle" route="route_22" depart="30" />
<vehicle id="MotorCycle_98" type="MotorCycle" route="route_23" depart="30" />
<vehicle id="MotorCycle_99" type="Car" route="route_23" depart="30" />
<vehicle id="Car_100" type="MotorCycle" route="route_24" depart="30" />
<vehicle id="Auto_101" type="MotorCycle" route="route_12" depart="31" />
<vehicle id="Auto_102" type="Bus" route="route_20" depart="31" />
<vehicle id="Auto_103" type="MotorCycle" route="route_20" depart="31" />
<vehicle id="Bus_104" type="MotorCycle" route="route_21" depart="31" />
<vehicle id="Bus_105" type="MotorCycle" route="route_22" depart="31" />
<vehicle id="Auto_106" type="MotorCycle" route="route_19" depart="32" />
<vehicle id="Auto_107" type="Car" route="route_19" depart="32" />
<vehicle id="Car_108" type="MotorCycle" route="route_21" depart="32" />
<vehicle id="MotorCycle_109" type="MotorCycle" route="route_22" depart="32" />
<vehicle id="MotorCycle_110" type="MotorCycle" route="route_24" depart="32" />
<vehicle id="Bus_111" type="MotorCycle" route="route_19" depart="33" />
<vehicle id="Car_112" type="Car" route="route_21" depart="34" />
<vehicle id="MotorCycle_113" type="MotorCycle" route="route_22" depart="34" />
<vehicle id="Auto_114" type="MotorCycle" route="route_4" depart="35" />
<vehicle id="Bus_115" type="MotorCycle" route="route_21" depart="35" />
<vehicle id="Bus_116" type="Car" route="route_22" depart="35" />
<vehicle id="Car_117" type="MotorCycle" route="route_9" depart="37" />
<vehicle id="MotorCycle_118" type="MotorCycle" route="route_11" depart="37" />
<vehicle id="Car_119" type="MotorCycle" route="route_19" depart="37" />
<vehicle id="Bus_120" type="MotorCycle" route="route_2" depart="38" />
<vehicle id="MotorCycle_121" type="MotorCycle" route="route_19" depart="38" />
<vehicle id="MotorCycle_122" type="Car" route="route_19" depart="38" />
<vehicle id="MotorCycle_123" type="MotorCycle" route="route_21" depart="38" />
<vehicle id="Bus_124" type="MotorCycle" route="route_22" depart="38" />
<vehicle id="Bus_125" type="MotorCycle" route="route_23" depart="38" />
<vehicle id="MotorCycle_126" type="Auto" route="route_24" depart="38" />
<vehicle id="MotorCycle_127" type="MotorCycle" route="route_24" depart="38" />
<vehicle id="Auto_128" type="MotorCycle" route="route_19" depart="39" />
<vehicle id="Auto_129" type="Car" route="route_19" depart="39" />
<vehicle id="Auto_130" type="MotorCycle" route="route_22" depart="39" />
<vehicle id="Car_131" type="MotorCycle" route="route_23" depart="39" />
<vehicle id="MotorCycle_132" type="MotorCycle" route="route_24" depart="40" />
<vehicle id="Auto_133" type="MotorCycle" route="route_18" depart="41" />
<vehicle id="Auto_134" type="MotorCycle" route="route_23" depart="42" />
<vehicle id="Car_135" type="MotorCycle" route="route_24" depart="43" />
<vehicle id="Auto_136" type="MotorCycle" route="route_1" depart="44" />
<vehicle id="Auto_137" type="Car" route="route_1" depart="44" />
<vehicle id="MotorCycle_138" type="MotorCycle" route="route_19" depart="44" />
<vehicle id="MotorCycle_139" type="MotorCycle" route="route_15" depart="45" />
<vehicle id="Car_140" type="MotorCycle" route="route_12" depart="46" />
<vehicle id="Car_141" type="Car" route="route_12" depart="46" />
<vehicle id="Car_142" type="MotorCycle" route="route_21" depart="46" />
<vehicle id="Car_143" type="MotorCycle" route="route_21" depart="47" />
<vehicle id="Car_144" type="Car" route="route_21" depart="47" />
<vehicle id="MotorCycle_145" type="MotorCycle" route="route_22" depart="48" />
<vehicle id="Car_146" type="Bus" route="route_19" depart="49" />
<vehicle id="Car_147" type="MotorCycle" route="route_19" depart="49" />
<vehicle id="Bus_148" type="Auto" route="route_21" depart="49" />
<vehicle id="Bus_149" type="MotorCycle" route="route_21" depart="49" />
<vehicle id="MotorCycle_150" type="MotorCycle" route="route_22" depart="49" />
<vehicle id="MotorCycle_151" type="Car" route="route_3" depart="50" />
<vehicle id="Car_152" type="MotorCycle" route="route_11" depart="50" />
<vehicle id="Auto_153" type="MotorCycle" route="route_19" depart="50" />
<vehicle id="MotorCycle_154" type="MotorCycle" route="route_20" depart="51" />
<vehicle id="Car_155" type="Car" route="route_22" depart="51" />
<vehicle id="Car_156" type="MotorCycle" route="route_5" depart="52" />
<vehicle id="Car_157" type="MotorCycle" route="route_21" depart="52" />
<vehicle id="Auto_158" type="MotorCycle" route="route_20" depart="53" />
<vehicle id="Auto_159" type="Car" route="route_20" depart="53" />
<vehicle id="Bus_160" type="MotorCycle" route="route_21" depart="53" />
<vehicle id="Bus_161" type="Car" route="route_22" depart="53" />
<vehicle id="Bus_162" type="MotorCycle" route="route_23" depart="53" />
<vehicle id="Car_163" type="Car" route="route_21" depart="54" />
<vehicle id="Auto_164" type="MotorCycle" route="route_22" depart="54" />
<vehicle id="MotorCycle_165" type="MotorCycle" route="route_23" depart="54" />
<vehicle id="Bus_166" type="MotorCycle" route="route_21" depart="55" />
<vehicle id="Car_167" type="MotorCycle" route="route_22" depart="55" />
<vehicle id="Car_168" type="MotorCycle" route="route_21" depart="56" />
<vehicle id="Bus_169" type="MotorCycle" route="route_15" depart="57" />
<vehicle id="Car_170" type="MotorCycle" route="route_21" depart="57" />
<vehicle id="Car_171" type="Car" route="route_21" depart="57" />
<vehicle id="Bus_172" type="MotorCycle" route="route_23" depart="57" />
<vehicle id="Bus_173" type="Car" route="route_23" depart="57" />
<vehicle id="MotorCycle_174" type="MotorCycle" route="route_21" depart="58" />
<vehicle id="Car_175" type="MotorCycle" route="route_4" depart="59" />
<vehicle id="MotorCycle_176" type="MotorCycle" route="route_23" depart="59" />
<vehicle id="MotorCycle_177" type="Car" route="route_23" depart="59" />
<vehicle id="Bus_178" type="MotorCycle" route="route_24" depart="59" />
<vehicle id="MotorCycle_179" type="MotorCycle" route="route_20" depart="60" />
<vehicle id="Bus_180" type="MotorCycle" route="route_1" depart="61" />
<vehicle id="Bus_181" type="Auto" route="route_6" depart="61" />
<vehicle id="Bus_182" type="MotorCycle" route="route_6" depart="61" />
<vehicle id="Car_183" type="Auto" route="route_15" depart="61" />
<vehicle id="Car_184" type="MotorCycle" route="route_15" depart="61" />
<vehicle id="MotorCycle_185" type="MotorCycle" route="route_20" depart="61" />
<vehicle id="MotorCycle_186" type="Car" route="route_20" depart="61" />
<vehicle id="MotorCycle_187" type="MotorCycle" route="route_21" depart="61" />
<vehicle id="Car_188" type="MotorCycle" route="route_24" depart="61" />
<vehicle id="Auto_189" type="MotorCycle" route="route_19" depart="62" />
<vehicle id="Car_190" type="MotorCycle" route="route_22" depart="62" />
<vehicle id="Bus_191" type="MotorCycle" route="route_21" depart="63" />
<vehicle id="Bus_192" type="Car" route="route_21" depart="63" />
<vehicle id="Car_193" type="MotorCycle" route="route_4" depart="64" />
<vehicle id="MotorCycle_194" type="MotorCycle" route="route_6" depart="64" />
<vehicle id="Car_195" type="MotorCycle" route="route_20" depart="64" />
<vehicle id="Bus_196" type="MotorCycle" route="route_22" depart="64" />
<vehicle id="Bus_197" type="Car" route="route_22" depart="64" />
<vehicle id="MotorCycle_198" type="MotorCycle" route="route_4" depart="65" />
<vehicle id="Auto_199" type="MotorCycle" route="route_20" depart="65" />
<vehicle id="Bus_200" type="MotorCycle" route="route_21" depart="65" />
<vehicle id="Car_201" type="MotorCycle" route="route_22" depart="65" />
<vehicle id="Car_202" type="MotorCycle" route="route_21" depart="66" />
<vehicle id="Bus_203" type="MotorCycle" route="route_20" depart="67" />
<vehicle id="Bus_204" type="MotorCycle" route="route_21" depart="67" />
<vehicle id="Bus_205" type="MotorCycle" route="route_24" depart="68" />
<vehicle id="MotorCycle_206" type="MotorCycle" route="route_9" depart="69" />
<vehicle id="MotorCycle_207" type="MotorCycle" route="route_22" depart="69" />
<vehicle id="Auto_208" type="MotorCycle" route="route_24" depart="69" />
<vehicle id="MotorCycle_209" type="MotorCycle" route="route_3" depart="70" />
<vehicle id="MotorCycle_210" type="MotorCycle" route="route_15" depart="70" />
<vehicle id="Car_211" type="Auto" route="route_16" depart="70" />
<vehicle id="Car_212" type="MotorCycle" route="route_16" depart="70" />
<vehicle id="Auto_213" type="MotorCycle" route="route_22" depart="70" />
<vehicle id="Car_214" type="Auto" route="route_21" depart="71" />
<vehicle id="Car_215" type="MotorCycle" route="route_21" depart="71" />
<vehicle id="Bus_216" type="Auto" route="route_22" depart="71" />
<vehicle id="Bus_217" type="MotorCycle" route="route_24" depart="71" />
<vehicle id="Auto_218" type="MotorCycle" route="route_21" depart="73" />
<vehicle id="Auto_219" type="Car" route="route_21" depart="73" />
<vehicle id="Bus_220" type="MotorCycle" route="route_13" depart="74" />
<vehicle id="MotorCycle_221" type="MotorCycle" route="route_22" depart="74" />
<vehicle id="MotorCycle_222" type="MotorCycle" route="route_20" depart="75" />
<vehicle id="Auto_223" type="MotorCycle" route="route_15" depart="76" />
<vehicle id="Auto_224" type="Car" route="route_15" depart="76" />
<vehicle id="MotorCycle_225" type="MotorCycle" route="route_20" depart="76" />
<vehicle id="MotorCycle_226" type="MotorCycle" route="route_21" depart="76" />
<vehicle id="Auto_227" type="MotorCycle" route="route_22" depart="76" />
<vehicle id="Bus_228" type="MotorCycle" route="route_12" depart="77" />
<vehicle id="Bus_229" type="Car" route="route_12" depart="77" />
<vehicle id="Bus_230" type="MotorCycle" route="route_21" depart="77" />
<vehicle id="MotorCycle_231" type="Auto" route="route_22" depart="77" />
<vehicle id="MotorCycle_232" type="MotorCycle" route="route_22" depart="77" />
<vehicle id="MotorCycle_233" type="MotorCycle" route="route_21" depart="78" />
<vehicle id="MotorCycle_234" type="MotorCycle" route="route_24" depart="78" />
<vehicle id="Auto_235" type="MotorCycle" route="route_22" depart="79" />
<vehicle id="MotorCycle_236" type="MotorCycle" route="route_23" depart="79" />
<vehicle id="Auto_237" type="MotorCycle" route="route_24" depart="79" />
<vehicle id="Car_238" type="MotorCycle" route="route_5" depart="80" />
<vehicle id="Bus_239" type="MotorCycle" route="route_22" depart="80" />
<vehicle id="Car_240" type="Auto" route="route_23" depart="80" />
<vehicle id="Car_241" type="MotorCycle" route="route_23" depart="80" />
<vehicle id="Car_242" type="MotorCycle" route="route_24" depart="80" />
<vehicle id="Car_243" type="MotorCycle" route="route_8" depart="81" />
<vehicle id="Auto_244" type="MotorCycle" route="route_19" depart="81" />
<vehicle id="Car_245" type="MotorCycle" route="route_21" depart="81" />
<vehicle id="Car_246" type="MotorCycle" route="route_22" depart="81" />
<vehicle id="Car_247" type="Car" route="route_22" depart="81" />
<vehicle id="MotorCycle_248" type="MotorCycle" route="route_4" depart="82" />
<vehicle id="Auto_249" type="MotorCycle" route="route_20" depart="83" />
<vehicle id="Bus_250" type="MotorCycle" route="route_5" depart="84" />
<vehicle id="Auto_251" type="MotorCycle" route="route_19" depart="85" />
<vehicle id="MotorCycle_252" type="Auto" route="route_21" depart="85" />
<vehicle id="MotorCycle_253" type="MotorCycle" route="route_21" depart="85" />
<vehicle id="MotorCycle_254" type="MotorCycle" route="route_23" depart="85" />
<vehicle id="Bus_255" type="MotorCycle" route="route_23" depart="86" />
<vehicle id="Bus_256" type="Auto" route="route_22" depart="87" />
<vehicle id="Bus_257" type="MotorCycle" route="route_22" depart="87" />
<vehicle id="Auto_258" type="MotorCycle" route="route_23" depart="87" />
<vehicle id="Auto_259" type="MotorCycle" route="route_20" depart="88" />
<vehicle id="Car_260" type="MotorCycle" route="route_22" depart="88" />
<vehicle id="Auto_261" type="MotorCycle" route="route_3" depart="89" />
<vehicle id="Bus_262" type="MotorCycle" route="route_9" depart="89" />
<vehicle id="Bus_263" type="Car" route="route_9" depart="89" />
<vehicle id="Auto_264" type="MotorCycle" route="route_10" depart="89" />
<vehicle id="Auto_265" type="MotorCycle" route="route_12" depart="89" />
<vehicle id="Bus_266" type="MotorCycle" route="route_17" depart="89" />
<vehicle id="MotorCycle_267" type="Bus" route="route_22" depart="89" />
<vehicle id="MotorCycle_268" type="MotorCycle" route="route_22" depart="89" />
<vehicle id="MotorCycle_269" type="MotorCycle" route="route_23" depart="89" />
<vehicle id="Auto_270" type="MotorCycle" route="route_21" depart="90" />
<vehicle id="Auto_271" type="Car" route="route_21" depart="90" />
<vehicle id="Bus_272" type="MotorCycle" route="route_24" depart="90" />
<vehicle id="Auto_273" type="MotorCycle" route="route_9" depart="91" />
<vehicle id="Auto_274" type="Car" route="route_9" depart="91" />
<vehicle id="Bus_275" type="MotorCycle" route="route_20" depart="91" />
<vehicle id="Bus_276" type="Car" route="route_20" depart="91" />
<vehicle id="MotorCycle_277" type="MotorCycle" route="route_21" depart="91" />
<vehicle id="MotorCycle_278" type="Car" route="route_21" depart="91" />
<vehicle id="Auto_279" type="MotorCycle" route="route_4" depart="92" />
<vehicle id="MotorCycle_280" type="MotorCycle" route="route_10" depart="92" />
<vehicle id="Car_281" type="MotorCycle" route="route_19" depart="92" />
<vehicle id="Car_282" type="Car" route="route_19" depart="92" />
<vehicle id="Auto_283" type="MotorCycle" route="route_21" depart="92" />
<vehicle id="Auto_284" type="Car" route="route_21" depart="92" />
<vehicle id="MotorCycle_285" type="MotorCycle" route="route_22" depart="92" />
<vehicle id="MotorCycle_286" type="Car" route="route_22" depart="92" />
<vehicle id="MotorCycle_287" type="MotorCycle" route="route_24" depart="92" />
<vehicle id="MotorCycle_288" type="Car" route="route_24" depart="92" />
<vehicle id="Car_289" type="MotorCycle" route="route_9" depart="93" />
<vehicle id="Auto_290" type="Auto" route="route_21" depart="93" />
<vehicle id="Car_291" type="MotorCycle" route="route_22" depart="93" />
<vehicle id="Auto_292" type="MotorCycle" route="route_24" depart="93" />
<vehicle id="Auto_293" type="Car" route="route_24" depart="93" />
<vehicle id="Car_294" type="MotorCycle" route="route_18" depart="94" />
<vehicle id="Auto_295" type="MotorCycle" route="route_21" depart="94" />
<vehicle id="Bus_296" type="MotorCycle" route="route_23" depart="94" />
<vehicle id="Bus_297" type="MotorCycle" route="route_19" depart="95" />
<vehicle id="Bus_298" type="Car" route="route_19" depart="95" />
<vehicle id="Auto_299" type="MotorCycle" route="route_21" depart="95" />
<vehicle id="Auto_300" type="MotorCycle" route="route_23" depart="96" />
<vehicle id="Car_301" type="MotorCycle" route="route_21" depart="97" />
<vehicle id="Bus_302" type="MotorCycle" route="route_22" depart="97" />
<vehicle id="Bus_303" type="Car" route="route_22" depart="97" />
<vehicle id="Auto_304" type="MotorCycle" route="route_8" depart="98" />
<vehicle id="Auto_305" type="MotorCycle" route="route_9" depart="98" />
<vehicle id="Car_306" type="MotorCycle" route="route_22" depart="98" />
<vehicle id="Car_307" type="MotorCycle" route="route_24" depart="98" />
<vehicle id="Bus_308" type="MotorCycle" route="route_1" depart="99" />
<vehicle id="Car_309" type="MotorCycle" route="route_21" depart="99" />
<vehicle id="Car_310" type="MotorCycle" route="route_22" depart="99" />
<vehicle id="Car_311" type="MotorCycle" route="route_4" depart="100" />
<vehicle id="Bus_312" type="MotorCycle" route="route_4" depart="101" />
<vehicle id="Auto_313" type="MotorCycle" route="route_22" depart="101" />
<vehicle id="Car_314" type="MotorCycle" route="route_12" depart="103" />
<vehicle id="Bus_315" type="MotorCycle" route="route_20" depart="103" />
<vehicle id="Bus_316" type="MotorCycle" route="route_1" depart="104" />
<vehicle id="Bus_317" type="Car" route="route_1" depart="104" />
<vehicle id="Bus_318" type="MotorCycle" route="route_22" depart="104" />
<vehicle id="MotorCycle_319" type="MotorCycle" route="route_21" depart="105" />
<vehicle id="MotorCycle_320" type="Car" route="route_21" depart="105" />
<vehicle id="Auto_321" type="MotorCycle" route="route_22" depart="105" />
<vehicle id="MotorCycle_322" type="MotorCycle" route="route_23" depart="105" />
<vehicle id="Auto_323" type="MotorCycle" route="route_19" depart="106" />
<vehicle id="Bus_324" type="MotorCycle" route="route_21" depart="106" />
<vehicle id="Auto_325" type="MotorCycle" route="route_22" depart="106" />
<vehicle id="MotorCycle_326" type="MotorCycle" route="route_24" depart="106" />
<vehicle id="MotorCycle_327" type="MotorCycle" route="route_9" depart="107" />
<vehicle id="Auto_328" type="MotorCycle" route="route_10" depart="107" />
<vehicle id="Auto_329" type="Car" route="route_10" depart="107" />
<vehicle id="Bus_330" type="MotorCycle" route="route_21" depart="107" />
<vehicle id="Bus_331" type="Car" route="route_21" depart="107" />
<vehicle id="Bus_332" type="MotorCycle" route="route_2" depart="108" />
<vehicle id="Car_333" type="MotorCycle" route="route_24" depart="108" />
<vehicle id="MotorCycle_334" type="MotorCycle" route="route_3" depart="109" />
<vehicle id="Bus_335" type="MotorCycle" route="route_22" depart="109" />
<vehicle id="Bus_336" type="Car" route="route_22" depart="109" />
<vehicle id="Bus_337" type="MotorCycle" route="route_23" depart="109" />
<vehicle id="MotorCycle_338" type="MotorCycle" route="route_4" depart="110" />
<vehicle id="Auto_339" type="MotorCycle" route="route_21" depart="110" />
<vehicle id="Auto_340" type="MotorCycle" route="route_23" depart="110" />
<vehicle id="Auto_341" type="MotorCycle" route="route_22" depart="111" />
<vehicle id="Car_342" type="MotorCycle" route="route_1" depart="113" />
<vehicle id="MotorCycle_343" type="MotorCycle" route="route_19" depart="114" />
<vehicle id="Car_344" type="MotorCycle" route="route_20" depart="114" />
<vehicle id="Car_345" type="MotorCycle" route="route_22" depart="114" />
<vehicle id="MotorCycle_346" type="MotorCycle" route="route_2" depart="115" />
<vehicle id="MotorCycle_347" type="Car" route="route_2" depart="115" />
<vehicle id="Car_348" type="MotorCycle" route="route_8" depart="115" />
<vehicle id="Bus_349" type="Auto" route="route_22" depart="115" />
<vehicle id="Bus_350" type="MotorCycle" route="route_22" depart="115" />
<vehicle id="Car_351" type="MotorCycle" route="route_11" depart="116" />
<vehicle id="Auto_352" type="MotorCycle" route="route_22" depart="116" />
<vehicle id="Auto_353" type="MotorCycle" route="route_24" depart="116" />
<vehicle id="Auto_354" type="MotorCycle" route="route_4" depart="117" />
<vehicle id="Car_355" type="MotorCycle" route="route_19" depart="117" />
<vehicle id="Auto_356" type="MotorCycle" route="route_21" depart="117" />
<vehicle id="Auto_357" type="Car" route="route_21" depart="117" />
<vehicle id="MotorCycle_358" type="MotorCycle" route="route_22" depart="117" />
<vehicle id="Auto_359" type="MotorCycle" route="route_23" depart="117" />
<vehicle id="Auto_360" type="Car" route="route_23" depart="117" />
<vehicle id="Car_361" type="Bus" route="route_8" depart="118" />
<vehicle id="Car_362" type="MotorCycle" route="route_8" depart="118" />
<vehicle id="Bus_363" type="MotorCycle" route="route_20" depart="118" />
<vehicle id="Car_364" type="MotorCycle" route="route_23" depart="118" />
<vehicle id="MotorCycle_365" type="Car" route="route_24" depart="118" />
<vehicle id="Auto_366" type="Car" route="route_2" depart="119" />
<vehicle id="Bus_367" type="Auto" route="route_3" depart="119" />
<vehicle id="Bus_368" type="MotorCycle" route="route_3" depart="119" />
<vehicle id="Auto_369" type="MotorCycle" route="route_12" depart="119" />
<vehicle id="Auto_370" type="MotorCycle" route="route_21" depart="119" />
<vehicle id="Car_371" type="MotorCycle" route="route_22" depart="119" />
<vehicle id="Auto_372" type="MotorCycle" route="route_23" depart="119" />
<vehicle id="Auto_373" type="Car" route="route_23" depart="119" />
<vehicle id="MotorCycle_374" type="MotorCycle" route="route_4" depart="120" />