<routes>
<vType id="Bus" accel="0.6" decel="3.5" sigma="0.5" length="10.1" minGap="1.0" maxSpeed="16.67" guiShape="bus" width="2.45" latAlignment="left" laneChangeModel="SL2015" lcStrategic="0.5" lcCooperative="0.0"/>
<vType id="Auto" accel="0.7" decel="4.5" sigma="0.5" length="2.6" minGap="0.3" maxSpeed="16" guiShape="passenger/sedan" width="1.25" latAlignment="left" laneChangeModel="SL2015" lcStrategic="0.5" lcCooperative="0.0" />
<vType id="MotorCycle" accel="0.9" decel="3.5" sigma="0.5" length="1.85" minGap="0.15" maxSpeed="17" guiShape="motorcycle" width="0.7" latAlignment="left" laneChangeModel="SL2015" lcStrategic="0.5" lcCooperative="0.0"/>
<vType id="Car" accel="0.8" decel="4.5" sigma="0.5" length="3.6" minGap="0.5" maxSpeed="40" guiShape="passenger" width="1.5" latAlignment="left" laneChangeModel="SL2015" lcStrategic="0.5" lcCooperative="0.0"/>
<route id="route_0" edges="1i 52i gneE0 gneE2" />
<route id="route_1" edges="-gneE2 -gneE0 52o 2i 1o" />
        <route id="route_2" edges="4i 3o" />
        <route id="route_3" edges="3i 4o" />
        <route id="route_4" edges="-gneE1 gneE3" />
        <route id="route_5" edges="4i 1o" />
        <route id="route_6" edges="4i 2o 52i gneE0 gneE1" />
        <route id="route_7" edges="2i 4o" />
        <route id="route_8" edges="2i 3o" />
        <route id="route_9" edges="-gneE1 gneE3" />
        <route id="route_10" edges="3i 2o 52i gneE0 gneE3" />
        <route id="route_11" edges="3i 1o" />
        <route id="route_12" edges="-gneE1 -gneE0 52o 2i 4o" />
        <route id="route_13" edges="-gneE1 gneE2" />
        <route id="route_14" edges="-gneE2 gneE1" />
        <route id="route_15" edges="-gneE2 gneE3" />
        <route id="route_16" edges="-gneE3 -gneE0 52o 2i 3o" />
        <route id="route_17" edges="-gneE3 gneE2" />
        <route id="route_18" edges="gneE0 gneE3" />
        <route id="route_19" edges="gneE0 gneE1" />

	<route id="route_20" edges="gneE0"/>
<vehicle id="Auto_0" type="MotorCycle" route="route_16" depart="13" />
<vehicle id="Car_1" type="MotorCycle" route="route_1" depart="15" />
<vehicle id="Car_2" type="MotorCycle" route="route_19" depart="17" />
<vehicle id="Car_3" type="Car" route="route_19" depart="17" />
<vehicle id="MotorCycle_4" type="MotorCycle" route="route_11" depart="20" />
<vehicle id="Auto_5" type="MotorCycle" route="route_15" depart="21" />
<vehicle id="Car_6" type="Bus" route="route_18" depart="30" />
<vehicle id="Car_7" type="MotorCycle" route="route_18" depart="30" />
<vehicle id="Car_8" type="Car" route="route_18" depart="30" />
<vehicle id="Auto_9" type="MotorCycle" route="route_2" depart="38" />
<vehicle id="Bus_10" type="MotorCycle" route="route_8" depart="42" />
<vehicle id="Bus_11" type="MotorCycle" route="route_17" depart="45" />
<vehicle id="Car_12" type="MotorCycle" route="route_16" depart="49" />
<vehicle id="Car_13" type="Car" route="route_16" depart="49" />
<vehicle id="Car_14" type="MotorCycle" route="route_13" depart="50" />
<vehicle id="Bus_15" type="Auto" route="route_10" depart="56" />
<vehicle id="Bus_16" type="MotorCycle" route="route_10" depart="56" />
<vehicle id="Auto_17" type="MotorCycle" route="route_16" depart="61" />
<vehicle id="MotorCycle_18" type="MotorCycle" route="route_9" depart="67" />
<vehicle id="Bus_19" type="MotorCycle" route="route_5" depart="72" />
<vehicle id="Auto_20" type="MotorCycle" route="route_13" depart="74" />
<vehicle id="Car_21" type="MotorCycle" route="route_18" depart="77" />
<vehicle id="Auto_22" type="MotorCycle" route="route_4" depart="82" />
<vehicle id="Auto_23" type="Car" route="route_4" depart="82" />
<vehicle id="Auto_24" type="MotorCycle" route="route_2" depart="93" />
<vehicle id="MotorCycle_25" type="MotorCycle" route="route_1" depart="100" />
<vehicle id="Auto_26" type="Auto" route="route_2" depart="106" />
<vehicle id="Auto_27" type="MotorCycle" route="route_2" depart="106" />
<vehicle id="Auto_28" type="Car" route="route_2" depart="106" />
<vehicle id="Auto_29" type="MotorCycle" route="route_8" depart="108" />
<vehicle id="MotorCycle_30" type="MotorCycle" route="route_13" depart="114" />
<vehicle id="Car_31" type="MotorCycle" route="route_14" depart="118" />
<vehicle id="Car_32" type="Car" route="route_14" depart="118" />
<vehicle id="Auto_33" type="MotorCycle" route="route_17" depart="120" />
<vehicle id="Car_34" type="MotorCycle" route="route_4" depart="125" />
<vehicle id="Auto_35" type="MotorCycle" route="route_3" depart="131" />
<vehicle id="Auto_36" type="Car" route="route_3" depart="131" />
<vehicle id="MotorCycle_37" type="Car" route="route_15" depart="132" />
<vehicle id="MotorCycle_38" type="MotorCycle" route="route_15" depart="140" />
<vehicle id="Car_39" type="MotorCycle" route="route_7" depart="149" />
<vehicle id="Auto_40" type="MotorCycle" route="route_10" depart="149" />
<vehicle id="Car_41" type="Car" route="route_1" depart="150" />
<vehicle id="Car_42" type="Auto" route="route_16" depart="173" />
<vehicle id="Car_43" type="MotorCycle" route="route_16" depart="173" />
<vehicle id="Bus_44" type="MotorCycle" route="route_3" depart="178" />
<vehicle id="Bus_45" type="MotorCycle" route="route_2" depart="182" />
<vehicle id="Car_46" type="MotorCycle" route="route_18" depart="195" />
<vehicle id="Auto_47" type="Auto" route="route_4" depart="196" />
<vehicle id="Auto_48" type="MotorCycle" route="route_4" depart="196" />
<vehicle id="Car_49" type="MotorCycle" route="route_14" depart="203" />
<vehicle id="Car_50" type="Car" route="route_14" depart="203" />
<vehicle id="Car_51" type="MotorCycle" route="route_11" depart="204" />
<vehicle id="Bus_52" type="MotorCycle" route="route_12" depart="206" />
<vehicle id="Bus_53" type="MotorCycle" route="route_7" depart="211" />
<vehicle id="Auto_54" type="MotorCycle" route="route_4" depart="216" />
<vehicle id="Auto_55" type="MotorCycle" route="route_20" depart="216" />
<vehicle id="Bus_56" type="MotorCycle" route="route_5" depart="219" />
<vehicle id="Bus_57" type="MotorCycle" route="route_19" depart="220" />
<vehicle id="Bus_58" type="MotorCycle" route="route_17" depart="228" />
<vehicle id="MotorCycle_59" type="MotorCycle" route="route_15" depart="231" />
<vehicle id="MotorCycle_60" type="MotorCycle" route="route_13" depart="234" />
<vehicle id="Bus_61" type="MotorCycle" route="route_4" depart="235" />
<vehicle id="Bus_62" type="Car" route="route_4" depart="235" />
<vehicle id="Bus_63" type="MotorCycle" route="route_3" depart="237" />
<vehicle id="Bus_64" type="MotorCycle" route="route_11" depart="241" />
<vehicle id="Bus_65" type="MotorCycle" route="route_7" depart="244" />
<vehicle id="Bus_66" type="Auto" route="route_3" depart="252" />
<vehicle id="Car_67" type="MotorCycle" route="route_11" depart="253" />
<vehicle id="Car_68" type="Car" route="route_11" depart="253" />
<vehicle id="Car_69" type="MotorCycle" route="route_3" depart="254" />
<vehicle id="Auto_70" type="MotorCycle" route="route_17" depart="258" />
<vehicle id="MotorCycle_71" type="MotorCycle" route="route_14" depart="260" />
<vehicle id="Bus_72" type="MotorCycle" route="route_7" depart="261" />
<vehicle id="Car_73" type="Car" route="route_17" depart="264" />
<vehicle id="Bus_74" type="MotorCycle" route="route_19" depart="264" />
<vehicle id="Bus_75" type="Auto" route="route_5" depart="269" />
<vehicle id="Car_76" type="MotorCycle" route="route_7" depart="271" />
<vehicle id="MotorCycle_77" type="MotorCycle" route="route_13" depart="274" />
<vehicle id="Bus_78" type="MotorCycle" route="route_12" depart="282" />
<vehicle id="Auto_79" type="MotorCycle" route="route_8" depart="287" />
<vehicle id="Bus_80" type="MotorCycle" route="route_2" depart="290" />
<vehicle id="MotorCycle_81" type="MotorCycle" route="route_17" depart="292" />
<vehicle id="Bus_82" type="MotorCycle" route="route_2" depart="298" />
<vehicle id="Auto_83" type="MotorCycle" route="route_15" depart="303" />
<vehicle id="Auto_84" type="MotorCycle" route="route_7" depart="309" />
<vehicle id="Car_85" type="MotorCycle" route="route_10" depart="312" />
<vehicle id="Car_86" type="MotorCycle" route="route_3" depart="315" />
<vehicle id="MotorCycle_87" type="MotorCycle" route="route_15" depart="323" />
<vehicle id="Bus_88" type="MotorCycle" route="route_17" depart="349" />
<vehicle id="Bus_89" type="Car" route="route_17" depart="349" />
<vehicle id="Bus_90" type="MotorCycle" route="route_5" depart="354" />
<vehicle id="MotorCycle_91" type="MotorCycle" route="route_7" depart="354" />
<vehicle id="Auto_92" type="MotorCycle" route="route_5" depart="355" />
<vehicle id="MotorCycle_93" type="MotorCycle" route="route_14" depart="363" />
<vehicle id="MotorCycle_94" type="MotorCycle" route="route_11" depart="367" />
<vehicle id="MotorCycle_95" type="MotorCycle" route="route_5" depart="373" />
<vehicle id="Bus_96" type="Car" route="route_3" depart="380" />
<vehicle id="MotorCycle_97" type="MotorCycle" route="route_1" depart="385" />
<vehicle id="MotorCycle_98" type="Auto" route="route_10" depart="386" />
<vehicle id="MotorCycle_99" type="MotorCycle" route="route_10" depart="386" />
<vehicle id="Car_100" type="MotorCycle" route="route_5" depart="389" />
<vehicle id="MotorCycle_101" type="MotorCycle" route="route_4" depart="391" />
<vehicle id="Car_102" type="Car" route="route_3" depart="393" />
<vehicle id="MotorCycle_103" type="MotorCycle" route="route_20" depart="394" />
<vehicle id="Car_104" type="MotorCycle" route="route_6" depart="400" />
<vehicle id="MotorCycle_105" type="MotorCycle" route="route_9" depart="413" />
<vehicle id="Bus_106" type="MotorCycle" route="route_14" depart="424" />
<vehicle id="MotorCycle_107" type="MotorCycle" route="route_4" depart="426" />
<vehicle id="MotorCycle_108" type="Car" route="route_4" depart="426" />
<vehicle id="MotorCycle_109" type="MotorCycle" route="route_11" depart="435" />
<vehicle id="Car_110" type="Auto" route="route_2" depart="438" />
<vehicle id="Car_111" type="MotorCycle" route="route_2" depart="438" />
<vehicle id="Car_112" type="Car" route="route_2" depart="438" />
<vehicle id="MotorCycle_113" type="MotorCycle" route="route_4" depart="442" />
<vehicle id="MotorCycle_114" type="MotorCycle" route="route_6" depart="448" />
<vehicle id="Car_115" type="MotorCycle" route="route_9" depart="448" />
<vehicle id="Auto_116" type="MotorCycle" route="route_2" depart="449" />
<vehicle id="Auto_117" type="Car" route="route_2" depart="449" />
<vehicle id="Auto_118" type="MotorCycle" route="route_4" depart="456" />
<vehicle id="MotorCycle_119" type="MotorCycle" route="route_19" depart="458" />
<vehicle id="MotorCycle_120" type="Car" route="route_19" depart="458" />
<vehicle id="MotorCycle_121" type="MotorCycle" route="route_1" depart="460" />
<vehicle id="Car_122" type="MotorCycle" route="route_11" depart="463" />
<vehicle id="Auto_123" type="MotorCycle" route="route_15" depart="463" />
<vehicle id="Car_124" type="MotorCycle" route="route_8" depart="470" />
<vehicle id="Auto_125" type="MotorCycle" route="route_13" depart="473" />
<vehicle id="Auto_126" type="MotorCycle" route="route_18" depart="475" />
<vehicle id="Car_127" type="MotorCycle" route="route_18" depart="479" />
<vehicle id="MotorCycle_128" type="MotorCycle" route="route_12" depart="488" />
<vehicle id="MotorCycle_129" type="MotorCycle" route="route_10" depart="494" />
<vehicle id="Auto_130" type="MotorCycle" route="route_17" depart="495" />
<vehicle id="Auto_131" type="MotorCycle" route="route_4" depart="500" />
<vehicle id="Car_132" type="Auto" route="route_13" depart="504" />
<vehicle id="Car_133" type="MotorCycle" route="route_13" depart="504" />
<vehicle id="MotorCycle_134" type="MotorCycle" route="route_15" depart="517" />
<vehicle id="MotorCycle_135" type="MotorCycle" route="route_5" depart="520" />
<vehicle id="Bus_136" type="MotorCycle" route="route_1" depart="522" />
<vehicle id="Auto_137" type="Car" route="route_14" depart="538" />
<vehicle id="MotorCycle_138" type="MotorCycle" route="route_1" depart="543" />
<vehicle id="Car_139" type="MotorCycle" route="route_9" depart="544" />
<vehicle id="Car_140" type="MotorCycle" route="route_13" depart="546" />
<vehicle id="Car_141" type="Car" route="route_13" depart="546" />
<vehicle id="Auto_142" type="MotorCycle" route="route_5" depart="553" />
<vehicle id="Auto_143" type="Car" route="route_5" depart="553" />
<vehicle id="Car_144" type="MotorCycle" route="route_15" depart="557" />
<vehicle id="MotorCycle_145" type="MotorCycle" route="route_10" depart="565" />
