<?xml version="1.0" encoding="UTF-8"?>

<!-- generated on Thursday 24 June 2021 10:51:40 AM by Eclipse SUMO netedit Version 1.4.0
<configuration xmlns:xsi="http://www.w3.org/2001/XMLSchema-instance" xsi:noNamespaceSchemaLocation="http://sumo.dlr.de/xsd/netconvertConfiguration.xsd">

    <input>
        <sumo-net-file value="/home/skp/sumo/bin/data/cross.net.xml"/>
    </input>

    <output>
        <output-file value="/home/skp/sumo/bin/data/cross.net.xml"/>
    </output>

    <processing>
        <geometry.min-radius.fix.railways value="false"/>
        <geometry.max-grade.fix value="false"/>
        <offset.disable-normalization value="true"/>
        <lefthand value="false"/>
    </processing>

    <junctions>
        <no-turnarounds value="true"/>
        <junctions.corner-detail value="0"/>
        <junctions.limit-turn-speed value="-1"/>
        <rectangular-lane-cut value="false"/>
    </junctions>

    <pedestrian>
        <walkingareas value="false"/>
    </pedestrian>

    <report>
        <aggregate-warnings value="5"/>
    </report>

</configuration>
-->

<net version="1.3" xmlns:xsi="http://www.w3.org/2001/XMLSchema-instance" xsi:noNamespaceSchemaLocation="http://sumo.dlr.de/xsd/net_file.xsd">

    <location netOffset="510.00,510.00" convBoundary="0.00,-27.78,3680.66,1080.50" origBoundary="-510.00,-510.00,510.00,510.00" projParameter="!"/>

    <edge id=":0_0" function="internal">
        <lane id=":0_0_0" index="0" speed="15.28" length="9.03" shape="502.00,523.60 501.65,521.15 500.60,519.40 498.85,518.35 496.40,518.00"/>
    </edge>
    <edge id=":0_1" function="internal">
        <lane id=":0_1_0" index="0" speed="15.28" length="27.20" shape="502.00,523.60 502.00,496.40"/>
        <lane id=":0_1_1" index="1" speed="15.28" length="27.20" shape="505.20,523.60 505.20,496.40"/>
        <lane id=":0_1_2" index="2" speed="15.28" length="27.20" shape="508.40,523.60 508.40,496.40"/>
    </edge>
    <edge id=":0_4" function="internal">
        <lane id=":0_4_0" index="0" speed="15.28" length="7.98" shape="508.40,523.60 509.35,516.95 510.00,515.87"/>
    </edge>
    <edge id=":0_20" function="internal">
        <lane id=":0_20_0" index="0" speed="15.28" length="16.53" shape="510.00,515.87 512.20,512.20 516.95,509.35 523.60,508.40"/>
    </edge>
    <edge id=":0_5" function="internal">
        <lane id=":0_5_0" index="0" speed="15.28" length="9.03" shape="523.60,518.00 521.15,518.35 519.40,519.40 518.35,521.15 518.00,523.60"/>
    </edge>
    <edge id=":0_6" function="internal">
        <lane id=":0_6_0" index="0" speed="15.28" length="27.20" shape="523.60,518.00 496.40,518.00"/>
        <lane id=":0_6_1" index="1" speed="15.28" length="27.20" shape="523.60,514.80 496.40,514.80"/>
        <lane id=":0_6_2" index="2" speed="15.28" length="27.20" shape="523.60,511.60 496.40,511.60"/>
    </edge>
    <edge id=":0_9" function="internal">
        <lane id=":0_9_0" index="0" speed="15.28" length="7.98" shape="523.60,511.60 516.95,510.65 515.87,510.00"/>
    </edge>
    <edge id=":0_21" function="internal">
        <lane id=":0_21_0" index="0" speed="15.28" length="16.53" shape="515.87,510.00 512.20,507.80 509.35,503.05 508.40,496.40"/>
    </edge>
    <edge id=":0_10" function="internal">
        <lane id=":0_10_0" index="0" speed="15.28" length="9.03" shape="518.00,496.40 518.35,498.85 519.40,500.60 521.15,501.65 523.60,502.00"/>
    </edge>
    <edge id=":0_11" function="internal">
        <lane id=":0_11_0" index="0" speed="15.28" length="27.20" shape="518.00,496.40 518.00,523.60"/>
        <lane id=":0_11_1" index="1" speed="15.28" length="27.20" shape="514.80,496.40 514.80,523.60"/>
        <lane id=":0_11_2" index="2" speed="15.28" length="27.20" shape="511.60,496.40 511.60,523.60"/>
    </edge>
    <edge id=":0_14" function="internal">
        <lane id=":0_14_0" index="0" speed="15.28" length="7.98" shape="511.60,496.40 510.65,503.05 510.00,504.13"/>
    </edge>
    <edge id=":0_22" function="internal">
        <lane id=":0_22_0" index="0" speed="15.28" length="16.53" shape="510.00,504.13 507.80,507.80 503.05,510.65 496.40,511.60"/>
    </edge>
    <edge id=":0_15" function="internal">
        <lane id=":0_15_0" index="0" speed="15.28" length="9.03" shape="496.40,502.00 498.85,501.65 500.60,500.60 501.65,498.85 502.00,496.40"/>
    </edge>
    <edge id=":0_16" function="internal">
        <lane id=":0_16_0" index="0" speed="15.28" length="27.20" shape="496.40,502.00 523.60,502.00"/>
        <lane id=":0_16_1" index="1" speed="15.28" length="27.20" shape="496.40,505.20 523.60,505.20"/>
        <lane id=":0_16_2" index="2" speed="15.28" length="27.20" shape="496.40,508.40 523.60,508.40"/>
    </edge>
    <edge id=":0_19" function="internal">
        <lane id=":0_19_0" index="0" speed="15.28" length="7.98" shape="496.40,508.40 503.05,509.35 504.13,510.00"/>
    </edge>
    <edge id=":0_23" function="internal">
        <lane id=":0_23_0" index="0" speed="15.28" length="16.53" shape="504.13,510.00 507.80,512.20 510.65,516.95 511.60,523.60"/>
    </edge>
    <edge id=":1_0" function="internal">
        <lane id=":1_0_0" index="0" speed="15.28" length="10.85" shape="14.00,518.00 11.29,517.00 9.95,514.80 8.64,512.60 6.00,511.60"/>
    </edge>
    <edge id=":1_1" function="internal">
        <lane id=":1_1_0" index="0" speed="15.28" length="2.34" shape="14.00,511.60 12.80,510.80 12.40,510.00"/>
    </edge>
    <edge id=":1_6" function="internal">
        <lane id=":1_6_0" index="0" speed="15.28" length="2.34" shape="12.40,510.00 12.80,509.20 14.00,508.40"/>
    </edge>
    <edge id=":1_2" function="internal">
        <lane id=":1_2_0" index="0" speed="15.28" length="9.22" shape="6.00,508.40 8.64,507.40 9.95,505.20 11.29,503.00 14.00,502.00"/>
        <lane id=":1_2_1" index="1" speed="15.28" length="9.22" shape="6.00,508.40 8.46,507.90 10.00,506.80 11.54,505.70 14.00,505.20"/>
        <lane id=":1_2_2" index="2" speed="15.28" length="9.22" shape="6.00,508.40 14.00,508.40"/>
    </edge>
    <edge id=":1_5" function="internal">
        <lane id=":1_5_0" index="0" speed="15.28" length="2.80" shape="6.00,508.40 7.20,509.20 7.60,510.00 7.39,510.42"/>
    </edge>
    <edge id=":1_7" function="internal">
        <lane id=":1_7_0" index="0" speed="15.28" length="1.87" shape="7.39,510.42 7.20,510.80 6.00,511.60"/>
    </edge>
    <edge id=":2_0" function="internal">
        <lane id=":2_0_0" index="0" speed="15.28" length="0.10" shape="1010.00,518.00 1010.00,518.00"/>
        <lane id=":2_0_1" index="1" speed="15.28" length="0.10" shape="1010.00,514.80 1010.00,514.80"/>
        <lane id=":2_0_2" index="2" speed="15.28" length="0.10" shape="1010.00,511.60 1010.00,511.60"/>
    </edge>
    <edge id=":2_3" function="internal">
        <lane id=":2_3_0" index="0" speed="15.28" length="2.34" shape="1010.00,511.60 1008.80,510.80 1008.40,510.00"/>
    </edge>
    <edge id=":2_8" function="internal">
        <lane id=":2_8_0" index="0" speed="15.28" length="2.34" shape="1008.40,510.00 1008.80,509.20 1010.00,508.40"/>
    </edge>
    <edge id=":2_4" function="internal">
        <lane id=":2_4_0" index="0" speed="15.28" length="0.10" shape="1010.00,502.00 1010.00,502.00"/>
        <lane id=":2_4_1" index="1" speed="15.28" length="0.10" shape="1010.00,505.20 1010.00,505.20"/>
        <lane id=":2_4_2" index="2" speed="15.28" length="0.10" shape="1010.00,508.40 1010.00,508.40"/>
    </edge>
    <edge id=":2_7" function="internal">
        <lane id=":2_7_0" index="0" speed="15.28" length="2.34" shape="1010.00,508.40 1011.20,509.20 1011.60,510.00"/>
    </edge>
    <edge id=":2_9" function="internal">
        <lane id=":2_9_0" index="0" speed="15.28" length="2.34" shape="1011.60,510.00 1011.20,510.80 1010.00,511.60"/>
    </edge>
    <edge id=":3_0" function="internal">
        <lane id=":3_0_0" index="0" speed="15.28" length="10.85" shape="502.00,14.00 503.00,11.29 505.20,9.95 507.40,8.64 508.40,6.00"/>
    </edge>
    <edge id=":3_1" function="internal">
        <lane id=":3_1_0" index="0" speed="15.28" length="2.34" shape="508.40,14.00 509.20,12.80 510.00,12.40"/>
    </edge>
    <edge id=":3_6" function="internal">
        <lane id=":3_6_0" index="0" speed="15.28" length="2.34" shape="510.00,12.40 510.80,12.80 511.60,14.00"/>
    </edge>
    <edge id=":3_2" function="internal">
        <lane id=":3_2_0" index="0" speed="15.28" length="9.22" shape="511.60,6.00 512.60,8.64 514.80,9.95 517.00,11.29 518.00,14.00"/>
        <lane id=":3_2_1" index="1" speed="15.28" length="9.22" shape="511.60,6.00 512.10,8.46 513.20,10.00 514.30,11.54 514.80,14.00"/>
        <lane id=":3_2_2" index="2" speed="15.28" length="9.22" shape="511.60,6.00 511.60,14.00"/>
    </edge>
    <edge id=":3_5" function="internal">
        <lane id=":3_5_0" index="0" speed="15.28" length="2.80" shape="511.60,6.00 510.80,7.20 510.00,7.60 509.58,7.39"/>
    </edge>
    <edge id=":3_7" function="internal">
        <lane id=":3_7_0" index="0" speed="15.28" length="1.87" shape="509.58,7.39 509.20,7.20 508.40,6.00"/>
    </edge>
    <edge id=":4_0" function="internal">
        <lane id=":4_0_0" index="0" speed="15.28" length="9.22" shape="508.40,1014.00 507.40,1011.36 505.20,1010.05 503.00,1008.71 502.00,1006.00"/>
        <lane id=":4_0_1" index="1" speed="15.28" length="9.22" shape="508.40,1014.00 507.90,1011.54 506.80,1010.00 505.70,1008.46 505.20,1006.00"/>
        <lane id=":4_0_2" index="2" speed="15.28" length="9.22" shape="508.40,1014.00 508.40,1006.00"/>
    </edge>
    <edge id=":4_3" function="internal">
        <lane id=":4_3_0" index="0" speed="15.28" length="2.80" shape="508.40,1014.00 509.20,1012.80 510.00,1012.40 510.42,1012.61"/>
    </edge>
    <edge id=":4_6" function="internal">
        <lane id=":4_6_0" index="0" speed="15.28" length="1.87" shape="510.42,1012.61 510.80,1012.80 511.60,1014.00"/>
    </edge>
    <edge id=":4_4" function="internal">
        <lane id=":4_4_0" index="0" speed="15.28" length="10.85" shape="518.00,1006.00 517.00,1008.71 514.80,1010.05 512.60,1011.36 511.60,1014.00"/>
    </edge>
    <edge id=":4_5" function="internal">
        <lane id=":4_5_0" index="0" speed="15.28" length="2.34" shape="511.60,1006.00 510.80,1007.20 510.00,1007.60"/>
    </edge>
    <edge id=":4_7" function="internal">
        <lane id=":4_7_0" index="0" speed="15.28" length="2.34" shape="510.00,1007.60 509.20,1007.20 508.40,1006.00"/>
    </edge>
    <edge id=":51_0" function="internal">
        <lane id=":51_0_0" index="0" speed="15.28" length="4.67" shape="0.00,511.60 -1.20,510.80 -1.60,510.00 -1.20,509.20 0.00,508.40"/>
    </edge>
    <edge id=":52_0" function="internal">
        <lane id=":52_0_0" index="0" speed="12.50" length="0.32" shape="1020.18,518.00 1019.85,518.00"/>
        <lane id=":52_0_1" index="1" speed="12.50" length="0.32" shape="1020.17,514.80 1019.85,514.80"/>
        <lane id=":52_0_2" index="2" speed="12.50" length="0.32" shape="1020.16,511.60 1019.85,511.60"/>
    </edge>
    <edge id=":52_3" function="internal">
        <lane id=":52_3_0" index="0" speed="16.66" length="0.28" shape="1019.85,502.00 1020.12,502.00"/>
        <lane id=":52_3_1" index="1" speed="16.66" length="0.28" shape="1019.85,505.20 1020.13,505.20"/>
        <lane id=":52_3_2" index="2" speed="16.66" length="0.28" shape="1019.85,508.40 1020.14,508.40"/>
    </edge>
    <edge id=":52_6" function="internal">
        <lane id=":52_6_0" index="0" speed="15.28" length="2.34" shape="1019.85,508.40 1021.05,509.20 1021.45,510.00"/>
    </edge>
    <edge id=":52_7" function="internal">
        <lane id=":52_7_0" index="0" speed="15.28" length="2.34" shape="1021.45,510.00 1021.05,510.80 1019.85,511.60"/>
    </edge>
    <edge id=":53_0" function="internal">
        <lane id=":53_0_0" index="0" speed="15.28" length="4.67" shape="508.40,0.00 509.20,-1.20 510.00,-1.60 510.80,-1.20 511.60,0.00"/>
    </edge>
    <edge id=":54_0" function="internal">
        <lane id=":54_0_0" index="0" speed="15.28" length="4.67" shape="511.60,1020.00 510.80,1021.20 510.00,1021.60 509.20,1021.20 508.40,1020.00"/>
    </edge>
    <edge id=":gneJ0_0" function="internal">
        <lane id=":gneJ0_0_0" index="0" speed="13.89" length="10.13" shape="1578.54,516.57 1575.86,516.89 1573.90,518.04 1572.65,520.00 1572.11,522.78"/>
    </edge>
    <edge id=":gneJ0_1" function="internal">
        <lane id=":gneJ0_1_0" index="0" speed="13.89" length="27.88" shape="1578.54,516.57 1550.76,516.23"/>
        <lane id=":gneJ0_1_1" index="1" speed="13.89" length="27.88" shape="1578.63,513.37 1550.74,513.03"/>
        <lane id=":gneJ0_1_2" index="2" speed="13.89" length="27.88" shape="1578.72,510.17 1550.73,509.83"/>
    </edge>
    <edge id=":gneJ0_4" function="internal">
        <lane id=":gneJ0_4_0" index="0" speed="13.89" length="7.80" shape="1578.72,510.17 1571.99,509.01 1571.17,508.48"/>
    </edge>
    <edge id=":gneJ0_20" function="internal">
        <lane id=":gneJ0_20_0" index="0" speed="13.89" length="17.01" shape="1571.17,508.48 1567.31,505.97 1564.67,501.05 1564.08,494.25"/>
    </edge>
    <edge id=":gneJ0_5" function="internal">
        <lane id=":gneJ0_5_0" index="0" speed="13.89" length="9.03" shape="1573.66,494.78 1573.88,497.26 1574.84,499.05 1576.54,500.16 1578.99,500.58"/>
    </edge>
    <edge id=":gneJ0_6" function="internal">
        <lane id=":gneJ0_6_0" index="0" speed="13.89" length="28.04" shape="1573.66,494.78 1572.11,522.78"/>
        <lane id=":gneJ0_6_1" index="1" speed="13.89" length="28.04" shape="1570.47,494.61 1568.92,522.61"/>
        <lane id=":gneJ0_6_2" index="2" speed="13.89" length="28.04" shape="1567.27,494.43 1565.72,522.43"/>
    </edge>
    <edge id=":gneJ0_9" function="internal">
        <lane id=":gneJ0_9_0" index="0" speed="13.89" length="8.08" shape="1567.27,494.43 1565.92,501.15 1565.24,502.17"/>
    </edge>
    <edge id=":gneJ0_21" function="internal">
        <lane id=":gneJ0_21_0" index="0" speed="13.89" length="17.37" shape="1565.24,502.17 1562.71,505.95 1557.65,508.85 1550.73,509.83"/>
    </edge>
    <edge id=":gneJ0_10" function="internal">
        <lane id=":gneJ0_10_0" index="0" speed="13.89" length="10.61" shape="1550.70,500.23 1553.63,499.82 1555.77,498.63 1557.12,496.66 1557.68,493.90"/>
    </edge>
    <edge id=":gneJ0_11" function="internal">
        <lane id=":gneJ0_11_0" index="0" speed="13.89" length="28.19" shape="1550.70,500.23 1578.99,500.58"/>
        <lane id=":gneJ0_11_1" index="1" speed="13.89" length="28.19" shape="1550.71,503.43 1578.90,503.78"/>
        <lane id=":gneJ0_11_2" index="2" speed="13.89" length="28.19" shape="1550.72,506.63 1578.81,506.98"/>
    </edge>
    <edge id=":gneJ0_14" function="internal">
        <lane id=":gneJ0_14_0" index="0" speed="13.89" length="8.35" shape="1550.72,506.63 1557.62,507.60 1558.80,508.33"/>
    </edge>
    <edge id=":gneJ0_22" function="internal">
        <lane id=":gneJ0_22_0" index="0" speed="13.89" length="16.83" shape="1558.80,508.33 1562.41,510.55 1565.11,515.50 1565.72,522.43"/>
    </edge>
    <edge id=":gneJ0_15" function="internal">
        <lane id=":gneJ0_15_0" index="0" speed="13.89" length="9.04" shape="1556.14,521.90 1555.92,519.41 1554.95,517.64 1553.23,516.57 1550.76,516.23"/>
    </edge>
    <edge id=":gneJ0_16" function="internal">
        <lane id=":gneJ0_16_0" index="0" speed="13.89" length="28.04" shape="1556.14,521.90 1557.68,493.90"/>
        <lane id=":gneJ0_16_1" index="1" speed="13.89" length="28.04" shape="1559.33,522.07 1560.88,494.08"/>
        <lane id=":gneJ0_16_2" index="2" speed="13.89" length="28.04" shape="1562.53,522.25 1564.08,494.25"/>
    </edge>
    <edge id=":gneJ0_19" function="internal">
        <lane id=":gneJ0_19_0" index="0" speed="13.89" length="8.25" shape="1562.53,522.25 1563.87,515.40 1564.57,514.34"/>
    </edge>
    <edge id=":gneJ0_23" function="internal">
        <lane id=":gneJ0_23_0" index="0" speed="13.89" length="17.06" shape="1564.57,514.34 1567.03,510.57 1572.01,507.77 1578.81,506.98"/>
    </edge>
    <edge id=":gneJ2_0" function="internal">
        <lane id=":gneJ2_0_0" index="0" speed="13.89" length="0.62" shape="2165.37,533.27 2164.61,533.26"/>
        <lane id=":gneJ2_0_1" index="1" speed="13.89" length="0.62" shape="2165.32,530.07 2164.70,530.06"/>
        <lane id=":gneJ2_0_2" index="2" speed="13.89" length="0.62" shape="2165.28,526.87 2164.80,526.86"/>
    </edge>
    <edge id=":gneJ2_3" function="internal">
        <lane id=":gneJ2_3_0" index="0" speed="13.89" length="0.22" shape="2165.07,517.27 2165.15,517.27"/>
        <lane id=":gneJ2_3_1" index="1" speed="13.89" length="0.22" shape="2164.98,520.47 2165.19,520.47"/>
        <lane id=":gneJ2_3_2" index="2" speed="13.89" length="0.22" shape="2164.89,523.66 2165.24,523.67"/>
    </edge>
    <edge id=":gneJ4_0" function="internal">
        <lane id=":gneJ4_0_0" index="0" speed="13.89" length="9.73" shape="2882.61,523.74 2879.94,524.09 2878.01,525.18 2876.84,527.02 2876.41,529.62"/>
    </edge>
    <edge id=":gneJ4_1" function="internal">
        <lane id=":gneJ4_1_0" index="0" speed="13.89" length="27.83" shape="2882.61,523.74 2854.86,523.80"/>
        <lane id=":gneJ4_1_1" index="1" speed="13.89" length="27.83" shape="2882.64,520.54 2854.81,520.60"/>
        <lane id=":gneJ4_1_2" index="2" speed="13.89" length="27.83" shape="2882.67,517.34 2854.77,517.40"/>
    </edge>
    <edge id=":gneJ4_4" function="internal">
        <lane id=":gneJ4_4_0" index="0" speed="13.89" length="7.92" shape="2882.67,517.34 2875.85,516.29 2874.99,515.76"/>
    </edge>
    <edge id=":gneJ4_20" function="internal">
        <lane id=":gneJ4_20_0" index="0" speed="13.89" length="17.13" shape="2874.99,515.76 2871.09,513.30 2868.42,508.37 2867.82,501.49"/>
    </edge>
    <edge id=":gneJ4_5" function="internal">
        <lane id=":gneJ4_5_0" index="0" speed="13.89" length="9.04" shape="2877.40,502.02 2877.62,504.50 2878.58,506.28 2880.30,507.36 2882.76,507.74"/>
    </edge>
    <edge id=":gneJ4_6" function="internal">
        <lane id=":gneJ4_6_0" index="0" speed="13.89" length="27.74" shape="2877.40,502.02 2876.41,529.62"/>
        <lane id=":gneJ4_6_1" index="1" speed="13.89" length="27.74" shape="2874.21,501.84 2873.21,529.57"/>
        <lane id=":gneJ4_6_2" index="2" speed="13.89" length="27.74" shape="2871.01,501.66 2870.02,529.52"/>
    </edge>
    <edge id=":gneJ4_9" function="internal">
        <lane id=":gneJ4_9_0" index="0" speed="13.89" length="7.92" shape="2871.01,501.66 2869.67,508.47 2869.14,509.30"/>
    </edge>
    <edge id=":gneJ4_21" function="internal">
        <lane id=":gneJ4_21_0" index="0" speed="13.89" length="17.49" shape="2869.14,509.30 2866.52,513.36 2861.55,516.34 2854.77,517.40"/>
    </edge>
    <edge id=":gneJ4_10" function="internal">
        <lane id=":gneJ4_10_0" index="0" speed="13.89" length="10.69" shape="2854.64,507.80 2857.47,507.35 2859.55,506.09 2860.87,504.01 2861.43,501.13"/>
    </edge>
    <edge id=":gneJ4_11" function="internal">
        <lane id=":gneJ4_11_0" index="0" speed="13.89" length="28.05" shape="2854.64,507.80 2882.76,507.74"/>
        <lane id=":gneJ4_11_1" index="1" speed="13.89" length="28.05" shape="2854.68,511.00 2882.73,510.94"/>
        <lane id=":gneJ4_11_2" index="2" speed="13.89" length="28.05" shape="2854.73,514.20 2882.70,514.14"/>
    </edge>
    <edge id=":gneJ4_14" function="internal">
        <lane id=":gneJ4_14_0" index="0" speed="13.89" length="8.22" shape="2854.73,514.20 2861.51,515.08 2862.70,515.78"/>
    </edge>
    <edge id=":gneJ4_22" function="internal">
        <lane id=":gneJ4_22_0" index="0" speed="13.89" length="16.63" shape="2862.70,515.78 2866.31,517.92 2869.15,522.74 2870.02,529.52"/>
    </edge>
    <edge id=":gneJ4_15" function="internal">
        <lane id=":gneJ4_15_0" index="0" speed="13.89" length="9.03" shape="2860.42,529.37 2860.10,526.90 2859.07,525.15 2857.32,524.12 2854.86,523.80"/>
    </edge>
    <edge id=":gneJ4_16" function="internal">
        <lane id=":gneJ4_16_0" index="0" speed="13.89" length="28.13" shape="2860.42,529.37 2861.43,501.13"/>
        <lane id=":gneJ4_16_1" index="1" speed="13.89" length="28.13" shape="2863.62,529.42 2864.62,501.31"/>
        <lane id=":gneJ4_16_2" index="2" speed="13.89" length="28.13" shape="2866.82,529.47 2867.82,501.49"/>
    </edge>
    <edge id=":gneJ4_19" function="internal">
        <lane id=":gneJ4_19_0" index="0" speed="13.89" length="8.36" shape="2866.82,529.47 2867.90,522.71 2868.70,521.42"/>
    </edge>
    <edge id=":gneJ4_23" function="internal">
        <lane id=":gneJ4_23_0" index="0" speed="13.89" length="16.78" shape="2868.70,521.42 2870.91,517.90 2875.84,515.04 2882.70,514.14"/>
    </edge>

    <edge id="-gneE0" from="gneJ0" to="52" priority="-1">
        <lane id="-gneE0_0" index="0" speed="13.89" length="530.58" shape="1550.76,516.23 1020.18,518.00"/>
        <lane id="-gneE0_1" index="1" speed="13.89" length="530.58" shape="1550.74,513.03 1020.17,514.80"/>
        <lane id="-gneE0_2" index="2" speed="13.89" length="530.58" shape="1550.73,509.83 1020.16,511.60"/>
    </edge>
    <edge id="-gneE1" from="gneJ1" to="gneJ0" priority="-1">
        <lane id="-gneE1_0" index="0" speed="13.89" length="472.11" shape="1529.98,993.28 1556.14,521.90"/>
        <lane id="-gneE1_1" index="1" speed="13.89" length="472.11" shape="1533.18,993.45 1559.33,522.07"/>
        <lane id="-gneE1_2" index="2" speed="13.89" length="472.11" shape="1536.37,993.63 1562.53,522.25"/>
    </edge>
    <edge id="-gneE2" from="gneJ2" to="gneJ0" priority="-1">
        <lane id="-gneE2_0" index="0" speed="13.89" length="586.32" shape="2164.61,533.26 1578.54,516.57"/>
        <lane id="-gneE2_1" index="1" speed="13.89" length="586.32" shape="2164.70,530.06 1578.63,513.37"/>
        <lane id="-gneE2_2" index="2" speed="13.89" length="586.32" shape="2164.80,526.86 1578.72,510.17"/>
    </edge>
    <edge id="-gneE3" from="gneJ3" to="gneJ0" priority="-1">
        <lane id="-gneE3_0" index="0" speed="13.89" length="522.91" shape="1602.44,-27.34 1573.66,494.78"/>
        <lane id="-gneE3_1" index="1" speed="13.89" length="522.91" shape="1599.24,-27.52 1570.47,494.61"/>
        <lane id="-gneE3_2" index="2" speed="13.89" length="522.91" shape="1596.05,-27.69 1567.27,494.43"/>
    </edge>
    <edge id="-gneE4" from="gneJ2" to="gneJ4" priority="-1">
        <lane id="-gneE4_0" index="0" speed="13.89" length="689.55" shape="2165.15,517.27 2854.64,507.80"/>
        <lane id="-gneE4_1" index="1" speed="13.89" length="689.55" shape="2165.19,520.47 2854.68,511.00"/>
        <lane id="-gneE4_2" index="2" speed="13.89" length="689.55" shape="2165.24,523.67 2854.73,514.20"/>
    </edge>
    <edge id="-gneE5" from="gneJ5" to="gneJ4" priority="-1">
        <lane id="-gneE5_0" index="0" speed="13.89" length="798.01" shape="3680.59,531.17 2882.61,523.74"/>
        <lane id="-gneE5_1" index="1" speed="13.89" length="798.01" shape="3680.62,527.97 2882.64,520.54"/>
        <lane id="-gneE5_2" index="2" speed="13.89" length="798.01" shape="3680.65,524.77 2882.67,517.34"/>
    </edge>
    <edge id="-gneE6" from="gneJ6" to="gneJ4" priority="-1">
        <lane id="-gneE6_0" index="0" speed="13.89" length="551.07" shape="2851.81,1080.37 2860.42,529.37"/>
        <lane id="-gneE6_1" index="1" speed="13.89" length="551.07" shape="2855.01,1080.42 2863.62,529.42"/>
        <lane id="-gneE6_2" index="2" speed="13.89" length="551.07" shape="2858.21,1080.47 2866.82,529.47"/>
    </edge>
    <edge id="-gneE7" from="gneJ7" to="gneJ4" priority="-1">
        <lane id="-gneE7_0" index="0" speed="13.89" length="521.42" shape="2906.42,-18.59 2877.40,502.02"/>
        <lane id="-gneE7_1" index="1" speed="13.89" length="521.42" shape="2903.23,-18.77 2874.21,501.84"/>
        <lane id="-gneE7_2" index="2" speed="13.89" length="521.42" shape="2900.03,-18.94 2871.01,501.66"/>
    </edge>
    <edge id="1i" from="1" to="0" priority="78">
        <lane id="1i_0" index="0" speed="19.44" length="482.40" shape="14.00,502.00 496.40,502.00"/>
        <lane id="1i_1" index="1" speed="19.44" length="482.40" shape="14.00,505.20 496.40,505.20"/>
        <lane id="1i_2" index="2" speed="19.44" length="482.40" shape="14.00,508.40 496.40,508.40"/>
    </edge>
    <edge id="1o" from="0" to="1" priority="46">
        <lane id="1o_0" index="0" speed="11.11" length="482.40" shape="496.40,518.00 14.00,518.00"/>
        <lane id="1o_1" index="1" speed="11.11" length="482.40" shape="496.40,514.80 14.00,514.80"/>
        <lane id="1o_2" index="2" speed="11.11" length="482.40" shape="496.40,511.60 14.00,511.60"/>
    </edge>
    <edge id="2i" from="2" to="0" priority="78">
        <lane id="2i_0" index="0" speed="19.44" length="486.40" shape="1010.00,518.00 523.60,518.00"/>
        <lane id="2i_1" index="1" speed="19.44" length="486.40" shape="1010.00,514.80 523.60,514.80"/>
        <lane id="2i_2" index="2" speed="19.44" length="486.40" shape="1010.00,511.60 523.60,511.60"/>
    </edge>
    <edge id="2o" from="0" to="2" priority="46">
        <lane id="2o_0" index="0" speed="11.11" length="486.40" shape="523.60,502.00 1010.00,502.00"/>
        <lane id="2o_1" index="1" speed="11.11" length="486.40" shape="523.60,505.20 1010.00,505.20"/>
        <lane id="2o_2" index="2" speed="11.11" length="486.40" shape="523.60,508.40 1010.00,508.40"/>
    </edge>
    <edge id="3i" from="3" to="0" priority="78">
        <lane id="3i_0" index="0" speed="19.44" length="482.40" shape="518.00,14.00 518.00,496.40"/>
        <lane id="3i_1" index="1" speed="19.44" length="482.40" shape="514.80,14.00 514.80,496.40"/>
        <lane id="3i_2" index="2" speed="19.44" length="482.40" shape="511.60,14.00 511.60,496.40"/>
    </edge>
    <edge id="3o" from="0" to="3" priority="46">
        <lane id="3o_0" index="0" speed="11.11" length="482.40" shape="502.00,496.40 502.00,14.00"/>
        <lane id="3o_1" index="1" speed="11.11" length="482.40" shape="505.20,496.40 505.20,14.00"/>
        <lane id="3o_2" index="2" speed="11.11" length="482.40" shape="508.40,496.40 508.40,14.00"/>
    </edge>
    <edge id="4i" from="4" to="0" priority="78">
        <lane id="4i_0" index="0" speed="19.44" length="482.40" shape="502.00,1006.00 502.00,523.60"/>
        <lane id="4i_1" index="1" speed="19.44" length="482.40" shape="505.20,1006.00 505.20,523.60"/>
        <lane id="4i_2" index="2" speed="19.44" length="482.40" shape="508.40,1006.00 508.40,523.60"/>
    </edge>
    <edge id="4o" from="0" to="4" priority="46">
        <lane id="4o_0" index="0" speed="11.11" length="482.40" shape="518.00,523.60 518.00,1006.00"/>
        <lane id="4o_1" index="1" speed="11.11" length="482.40" shape="514.80,523.60 514.80,1006.00"/>
        <lane id="4o_2" index="2" speed="11.11" length="482.40" shape="511.60,523.60 511.60,1006.00"/>
    </edge>
    <edge id="51i" from="1" to="51" priority="78">
        <lane id="51i_0" index="0" speed="19.44" length="6.00" shape="6.00,511.60 0.00,511.60"/>
    </edge>
    <edge id="51o" from="51" to="1" priority="46">
        <lane id="51o_0" index="0" speed="11.11" length="6.00" shape="0.00,508.40 6.00,508.40"/>
    </edge>
    <edge id="52i" from="2" to="52" priority="78">
        <lane id="52i_0" index="0" speed="19.44" length="9.85" shape="1010.00,502.00 1019.85,502.00"/>
        <lane id="52i_1" index="1" speed="19.44" length="9.85" shape="1010.00,505.20 1019.85,505.20"/>
        <lane id="52i_2" index="2" speed="19.44" length="9.85" shape="1010.00,508.40 1019.85,508.40"/>
    </edge>
    <edge id="52o" from="52" to="2" priority="46">
        <lane id="52o_0" index="0" speed="11.11" length="9.85" shape="1019.85,518.00 1010.00,518.00"/>
        <lane id="52o_1" index="1" speed="11.11" length="9.85" shape="1019.85,514.80 1010.00,514.80"/>
        <lane id="52o_2" index="2" speed="11.11" length="9.85" shape="1019.85,511.60 1010.00,511.60"/>
    </edge>
    <edge id="53i" from="3" to="53" priority="78">
        <lane id="53i_0" index="0" speed="19.44" length="6.00" shape="508.40,6.00 508.40,0.00"/>
    </edge>
    <edge id="53o" from="53" to="3" priority="46">
        <lane id="53o_0" index="0" speed="11.11" length="6.00" shape="511.60,0.00 511.60,6.00"/>
    </edge>
    <edge id="54i" from="4" to="54" priority="78">
        <lane id="54i_0" index="0" speed="19.44" length="6.00" shape="511.60,1014.00 511.60,1020.00"/>
    </edge>
    <edge id="54o" from="54" to="4" priority="46">
        <lane id="54o_0" index="0" speed="11.11" length="6.00" shape="508.40,1020.00 508.40,1014.00"/>
    </edge>
    <edge id="gneE0" from="52" to="gneJ0" priority="-1">
        <lane id="gneE0_0" index="0" speed="13.89" length="530.58" shape="1020.12,502.00 1550.70,500.23"/>
        <lane id="gneE0_1" index="1" speed="13.89" length="530.58" shape="1020.13,505.20 1550.71,503.43"/>
        <lane id="gneE0_2" index="2" speed="13.89" length="530.58" shape="1020.14,508.40 1550.72,506.63"/>
    </edge>
    <edge id="gneE1" from="gneJ0" to="gneJ1" priority="-1">
        <lane id="gneE1_0" index="0" speed="13.89" length="472.11" shape="1572.11,522.78 1545.96,994.16"/>
        <lane id="gneE1_1" index="1" speed="13.89" length="472.11" shape="1568.92,522.61 1542.76,993.99"/>
        <lane id="gneE1_2" index="2" speed="13.89" length="472.11" shape="1565.72,522.43 1539.57,993.81"/>
    </edge>
    <edge id="gneE2" from="gneJ0" to="gneJ2" priority="-1">
        <lane id="gneE2_0" index="0" speed="13.89" length="586.32" shape="1578.99,500.58 2165.07,517.27"/>
        <lane id="gneE2_1" index="1" speed="13.89" length="586.32" shape="1578.90,503.78 2164.98,520.47"/>
        <lane id="gneE2_2" index="2" speed="13.89" length="586.32" shape="1578.81,506.98 2164.89,523.66"/>
    </edge>
    <edge id="gneE3" from="gneJ0" to="gneJ3" priority="-1">
        <lane id="gneE3_0" index="0" speed="13.89" length="522.91" shape="1557.68,493.90 1586.46,-28.22"/>
        <lane id="gneE3_1" index="1" speed="13.89" length="522.91" shape="1560.88,494.08 1589.66,-28.04"/>