<?xml version="1.0" encoding="UTF-8"?>

<!-- generated on Tuesday 21 February 2023 09:37:45 AM by Eclipse SUMO netedit Version 1.4.0
<configuration xmlns:xsi="http://www.w3.org/2001/XMLSchema-instance" xsi:noNamespaceSchemaLocation="http://sumo.dlr.de/xsd/netconvertConfiguration.xsd">

    <input>
        <sumo-net-file value="my_grid_1.net.xml"/>
    </input>

    <output>
        <output-file value="my_grid_1.net.xml"/>
    </output>

    <processing>
        <geometry.min-radius.fix.railways value="false"/>
        <geometry.max-grade.fix value="false"/>
        <offset.disable-normalization value="true"/>
        <lefthand value="false"/>
    </processing>

    <junctions>
        <no-internal-links value="false"/>
        <no-turnarounds value="true"/>
        <junctions.corner-detail value="5"/>
        <junctions.limit-turn-speed value="5.5"/>
        <rectangular-lane-cut value="false"/>
    </junctions>

    <pedestrian>
        <walkingareas value="true"/>
    </pedestrian>

    <report>
        <aggregate-warnings value="5"/>
    </report>

</configuration>
-->

<net version="1.3" junctionCornerDetail="5" walkingareas="true" limitTurnSpeed="5.50" xmlns:xsi="http://www.w3.org/2001/XMLSchema-instance" xsi:noNamespaceSchemaLocation="http://sumo.dlr.de/xsd/net_file.xsd">

    <location netOffset="0.00,0.00" convBoundary="0.00,0.00,2400.00,1800.00" origBoundary="0.00,0.00,2400.00,1800.00" projParameter="!"/>

    <edge id=":A0_0" function="internal">
        <lane id=":A0_0_0" index="0" disallow="pedestrian" speed="11.71" length="31.61" shape="-8.00,11.60 -6.78,3.02 -3.10,-3.10 3.02,-6.78 11.60,-8.00"/>
    </edge>
    <edge id=":A0_1" function="internal">
        <lane id=":A0_1_0" index="0" disallow="pedestrian" speed="10.75" length="26.45" shape="-4.80,11.60 -3.78,4.42 -0.70,-0.70 4.42,-3.77 11.60,-4.80"/>
    </edge>
    <edge id=":A0_2" function="internal">
        <lane id=":A0_2_0" index="0" disallow="pedestrian" speed="9.69" length="21.29" shape="-1.60,11.60 -0.78,5.83 1.70,1.70 5.82,-0.77 11.60,-1.60"/>
    </edge>
    <edge id=":A0_3" function="internal">
        <lane id=":A0_3_0" index="0" disallow="pedestrian" speed="5.37" length="5.81" shape="11.60,8.00 10.02,8.22 8.90,8.90 8.22,10.02 8.00,11.60"/>
    </edge>
    <edge id=":A0_4" function="internal">
        <lane id=":A0_4_0" index="0" disallow="pedestrian" speed="7.10" length="6.77" shape="11.60,4.80 8.63,5.22 6.50,6.50 5.84,7.60"/>
    </edge>
    <edge id=":A0_5" function="internal">
        <lane id=":A0_5_0" index="0" disallow="pedestrian" speed="8.49" length="12.09" shape="11.60,1.60 7.22,2.22 4.10,4.10 2.22,7.22 2.17,7.60"/>
    </edge>
    <edge id=":A0_6" function="internal">
        <lane id=":A0_6_0" index="0" disallow="pedestrian" speed="7.10" length="4.20" shape="5.84,7.60 5.23,8.62 4.80,11.60"/>
    </edge>
    <edge id=":A0_7" function="internal">
        <lane id=":A0_7_0" index="0" disallow="pedestrian" speed="8.49" length="4.04" shape="2.17,7.60 1.60,11.60"/>
    </edge>
    <edge id=":A0_c0" function="crossing" crossingEdges="A0A1 A1A0">
        <lane id=":A0_c0_0" index="0" allow="pedestrian" speed="1.00" length="19.20" width="4.00" shape="9.60,9.60 -9.60,9.60"/>
    </edge>
    <edge id=":A0_w0" function="walkingarea">
        <lane id=":A0_w0_0" index="0" allow="pedestrian" speed="1.00" length="20.97" width="4.00" shape="11.60,-9.60 11.60,-11.60 -11.60,11.60 -9.60,11.60 -9.01,5.12 -7.24,-0.18 -4.30,-4.30 -0.18,-7.24 5.12,-9.01"/>
    </edge>
    <edge id=":A0_w1" function="walkingarea">
        <lane id=":A0_w1_0" index="0" allow="pedestrian" speed="1.00" length="1.96" width="4.00" shape="9.60,11.60 11.60,11.60 11.60,11.60 11.60,9.60 10.99,9.66 10.49,9.82 10.10,10.10 9.82,10.49 9.66,10.99"/>
    </edge>
    <edge id=":A1_0" function="internal">
        <lane id=":A1_0_0" index="0" disallow="pedestrian" speed="13.89" length="27.20" shape="-8.00,613.60 -8.00,586.40"/>
        <lane id=":A1_0_1" index="1" disallow="pedestrian" speed="13.89" length="27.20" shape="-4.80,613.60 -4.80,586.40"/>
        <lane id=":A1_0_2" index="2" disallow="pedestrian" speed="13.89" length="27.20" shape="-1.60,613.60 -1.60,586.40"/>
    </edge>
    <edge id=":A1_3" function="internal">
        <lane id=":A1_3_0" index="0" disallow="pedestrian" speed="10.88" length="9.57" shape="-1.60,613.60 -0.65,605.55 -0.00,604.24"/>
    </edge>
    <edge id=":A1_4" function="internal">
        <lane id=":A1_4_0" index="0" disallow="pedestrian" speed="10.36" length="7.98" shape="-1.60,613.60 -0.65,606.95 -0.00,605.87"/>
    </edge>
    <edge id=":A1_5" function="internal">
        <lane id=":A1_5_0" index="0" disallow="pedestrian" speed="3.65" length="2.34" shape="-1.60,613.60 -0.80,612.40 0.00,612.00"/>
    </edge>
    <edge id=":A1_16" function="internal">
        <lane id=":A1_16_0" index="0" disallow="pedestrian" speed="10.88" length="17.57" shape="-0.00,604.24 2.20,599.80 6.95,596.35 13.60,595.20"/>
    </edge>
    <edge id=":A1_17" function="internal">
        <lane id=":A1_17_0" index="0" disallow="pedestrian" speed="10.36" length="16.53" shape="-0.00,605.87 2.20,602.20 6.95,599.35 13.60,598.40"/>
    </edge>
    <edge id=":A1_18" function="internal">
        <lane id=":A1_18_0" index="0" disallow="pedestrian" speed="3.65" length="2.34" shape="0.00,612.00 0.80,612.40 1.60,613.60"/>
    </edge>
    <edge id=":A1_6" function="internal">
        <lane id=":A1_6_0" index="0" disallow="pedestrian" speed="6.51" length="4.75" shape="13.60,608.00 11.15,608.35 9.40,609.40 9.28,609.60"/>
    </edge>
    <edge id=":A1_7" function="internal">
        <lane id=":A1_7_0" index="0" disallow="pedestrian" speed="8.00" length="10.13" shape="13.60,604.80 9.75,605.35 7.00,607.00 5.44,609.60"/>
    </edge>
    <edge id=":A1_8" function="internal">
        <lane id=":A1_8_0" index="0" disallow="pedestrian" speed="10.88" length="23.08" shape="13.60,601.60 5.55,600.65 -0.20,597.80 -3.65,593.05 -4.11,590.40"/>
    </edge>
    <edge id=":A1_9" function="internal">
        <lane id=":A1_9_0" index="0" disallow="pedestrian" speed="10.36" length="20.47" shape="13.60,601.60 6.95,600.65 2.20,597.80 -0.65,593.05 -1.03,590.40"/>
    </edge>
    <edge id=":A1_10" function="internal">
        <lane id=":A1_10_0" index="0" disallow="pedestrian" speed="3.65" length="4.67" shape="13.60,601.60 12.40,600.80 12.00,600.00 12.40,599.20 13.60,598.40"/>
    </edge>
    <edge id=":A1_19" function="internal">
        <lane id=":A1_19_0" index="0" disallow="pedestrian" speed="6.51" length="4.28" shape="9.28,609.60 8.35,611.15 8.00,613.60"/>
    </edge>
    <edge id=":A1_20" function="internal">
        <lane id=":A1_20_0" index="0" disallow="pedestrian" speed="8.00" length="4.06" shape="5.44,609.60 5.35,609.75 4.80,613.60"/>
    </edge>
    <edge id=":A1_21" function="internal">
        <lane id=":A1_21_0" index="0" disallow="pedestrian" speed="10.88" length="4.06" shape="-4.11,590.40 -4.80,586.40"/>
    </edge>
    <edge id=":A1_22" function="internal">
        <lane id=":A1_22_0" index="0" disallow="pedestrian" speed="10.36" length="4.04" shape="-1.03,590.40 -1.60,586.40"/>
    </edge>
    <edge id=":A1_11" function="internal">
        <lane id=":A1_11_0" index="0" disallow="pedestrian" speed="6.51" length="4.75" shape="8.00,586.40 8.35,588.85 9.40,590.60 9.60,590.72"/>
    </edge>
    <edge id=":A1_12" function="internal">
        <lane id=":A1_12_0" index="0" disallow="pedestrian" speed="13.89" length="27.20" shape="8.00,586.40 8.00,613.60"/>
        <lane id=":A1_12_1" index="1" disallow="pedestrian" speed="13.89" length="27.20" shape="4.80,586.40 4.80,613.60"/>
        <lane id=":A1_12_2" index="2" disallow="pedestrian" speed="13.89" length="27.20" shape="1.60,586.40 1.60,613.60"/>
    </edge>
    <edge id=":A1_15" function="internal">
        <lane id=":A1_15_0" index="0" disallow="pedestrian" speed="3.65" length="2.34" shape="1.60,586.40 0.80,587.60 0.00,588.00"/>
    </edge>
    <edge id=":A1_23" function="internal">
        <lane id=":A1_23_0" index="0" disallow="pedestrian" speed="6.51" length="4.28" shape="9.60,590.72 11.15,591.65 13.60,592.00"/>
    </edge>
    <edge id=":A1_24" function="internal">
        <lane id=":A1_24_0" index="0" disallow="pedestrian" speed="3.65" length="2.34" shape="0.00,588.00 -0.80,587.60 -1.60,586.40"/>
    </edge>
    <edge id=":A1_c0" function="crossing" crossingEdges="A1A2 A2A1">
        <lane id=":A1_c0_0" index="0" allow="pedestrian" speed="1.00" length="19.20" width="4.00" shape="9.60,611.60 -9.60,611.60"/>
    </edge>
    <edge id=":A1_c1" function="crossing" crossingEdges="A1B1 B1A1">
        <lane id=":A1_c1_0" index="0" allow="pedestrian" speed="1.00" length="19.20" width="4.00" shape="11.60,590.40 11.60,609.60"/>
    </edge>
    <edge id=":A1_c2" function="crossing" crossingEdges="A1A0 A0A1">
        <lane id=":A1_c2_0" index="0" allow="pedestrian" speed="1.00" length="19.20" width="4.00" shape="-9.60,588.40 9.60,588.40"/>
    </edge>
    <edge id=":A1_w0" function="walkingarea">
        <lane id=":A1_w0_0" index="0" allow="pedestrian" speed="1.00" length="17.55" width="4.00" shape="-9.60,590.40 -9.60,586.40 -11.60,586.40 -11.60,613.60 -9.60,613.60 -9.60,609.60"/>
    </edge>
    <edge id=":A1_w1" function="walkingarea">
        <lane id=":A1_w1_0" index="0" allow="pedestrian" speed="1.00" length="3.30" width="4.00" shape="9.60,613.60 11.60,613.60 13.60,611.60 13.60,609.60 12.38,609.71 11.38,610.04 10.60,610.60 10.04,611.38 9.71,612.38"/>
    </edge>
    <edge id=":A1_w2" function="walkingarea">
        <lane id=":A1_w2_0" index="0" allow="pedestrian" speed="1.00" length="3.30" width="4.00" shape="13.60,590.40 13.60,588.40 11.60,586.40 9.60,586.40 9.71,587.62 10.04,588.62 10.60,589.40 11.38,589.96 12.38,590.29"/>
    </edge>
    <edge id=":A2_0" function="internal">
        <lane id=":A2_0_0" index="0" disallow="pedestrian" speed="13.89" length="27.20" shape="-8.00,1213.60 -8.00,1186.40"/>
        <lane id=":A2_0_1" index="1" disallow="pedestrian" speed="13.89" length="27.20" shape="-4.80,1213.60 -4.80,1186.40"/>
        <lane id=":A2_0_2" index="2" disallow="pedestrian" speed="13.89" length="27.20" shape="-1.60,1213.60 -1.60,1186.40"/>
    </edge>
    <edge id=":A2_3" function="internal">
        <lane id=":A2_3_0" index="0" disallow="pedestrian" speed="10.88" length="9.57" shape="-1.60,1213.60 -0.65,1205.55 0.00,1204.24"/>
    </edge>
    <edge id=":A2_4" function="internal">
        <lane id=":A2_4_0" index="0" disallow="pedestrian" speed="10.36" length="7.98" shape="-1.60,1213.60 -0.65,1206.95 -0.00,1205.87"/>
    </edge>
    <edge id=":A2_5" function="internal">
        <lane id=":A2_5_0" index="0" disallow="pedestrian" speed="3.65" length="2.34" shape="-1.60,1213.60 -0.80,1212.40 0.00,1212.00"/>
    </edge>
    <edge id=":A2_16" function="internal">
        <lane id=":A2_16_0" index="0" disallow="pedestrian" speed="10.88" length="17.57" shape="0.00,1204.24 2.20,1199.80 6.95,1196.35 13.60,1195.20"/>
    </edge>
    <edge id=":A2_17" function="internal">
        <lane id=":A2_17_0" index="0" disallow="pedestrian" speed="10.36" length="16.53" shape="-0.00,1205.87 2.20,1202.20 6.95,1199.35 13.60,1198.40"/>
    </edge>
    <edge id=":A2_18" function="internal">
        <lane id=":A2_18_0" index="0" disallow="pedestrian" speed="3.65" length="2.34" shape="0.00,1212.00 0.80,1212.40 1.60,1213.60"/>
    </edge>
    <edge id=":A2_6" function="internal">
        <lane id=":A2_6_0" index="0" disallow="pedestrian" speed="6.51" length="4.75" shape="13.60,1208.00 11.15,1208.35 9.40,1209.40 9.28,1209.60"/>
    </edge>
    <edge id=":A2_7" function="internal">
        <lane id=":A2_7_0" index="0" disallow="pedestrian" speed="8.00" length="10.13" shape="13.60,1204.80 9.75,1205.35 7.00,1207.00 5.44,1209.60"/>
    </edge>
    <edge id=":A2_8" function="internal">
        <lane id=":A2_8_0" index="0" disallow="pedestrian" speed="10.88" length="23.08" shape="13.60,1201.60 5.55,1200.65 -0.20,1197.80 -3.65,1193.05 -4.11,1190.40"/>
    </edge>
    <edge id=":A2_9" function="internal">
        <lane id=":A2_9_0" index="0" disallow="pedestrian" speed="10.36" length="20.47" shape="13.60,1201.60 6.95,1200.65 2.20,1197.80 -0.65,1193.05 -1.03,1190.40"/>
    </edge>
    <edge id=":A2_10" function="internal">
        <lane id=":A2_10_0" index="0" disallow="pedestrian" speed="3.65" length="4.67" shape="13.60,1201.60 12.40,1200.80 12.00,1200.00 12.40,1199.20 13.60,1198.40"/>
    </edge>
    <edge id=":A2_19" function="internal">
        <lane id=":A2_19_0" index="0" disallow="pedestrian" speed="6.51" length="4.28" shape="9.28,1209.60 8.35,1211.15 8.00,1213.60"/>
    </edge>
    <edge id=":A2_20" function="internal">
        <lane id=":A2_20_0" index="0" disallow="pedestrian" speed="8.00" length="4.06" shape="5.44,1209.60 5.35,1209.75 4.80,1213.60"/>
    </edge>
    <edge id=":A2_21" function="internal">
        <lane id=":A2_21_0" index="0" disallow="pedestrian" speed="10.88" length="4.06" shape="-4.11,1190.40 -4.80,1186.40"/>
    </edge>
    <edge id=":A2_22" function="internal">
        <lane id=":A2_22_0" index="0" disallow="pedestrian" speed="10.36" length="4.04" shape="-1.03,1190.40 -1.60,1186.40"/>
    </edge>
    <edge id=":A2_11" function="internal">
        <lane id=":A2_11_0" index="0" disallow="pedestrian" speed="6.51" length="4.75" shape="8.00,1186.40 8.35,1188.85 9.40,1190.60 9.60,1190.72"/>
    </edge>
    <edge id=":A2_12" function="internal">
        <lane id=":A2_12_0" index="0" disallow="pedestrian" speed="13.89" length="27.20" shape="8.00,1186.40 8.00,1213.60"/>
        <lane id=":A2_12_1" index="1" disallow="pedestrian" speed="13.89" length="27.20" shape="4.80,1186.40 4.80,1213.60"/>
        <lane id=":A2_12_2" index="2" disallow="pedestrian" speed="13.89" length="27.20" shape="1.60,1186.40 1.60,1213.60"/>
    </edge>
    <edge id=":A2_15" function="internal">
        <lane id=":A2_15_0" index="0" disallow="pedestrian" speed="3.65" length="2.34" shape="1.60,1186.40 0.80,1187.60 0.00,1188.00"/>
    </edge>
    <edge id=":A2_23" function="internal">
        <lane id=":A2_23_0" index="0" disallow="pedestrian" speed="6.51" length="4.28" shape="9.60,1190.72 11.15,1191.65 13.60,1192.00"/>
    </edge>
    <edge id=":A2_24" function="internal">
        <lane id=":A2_24_0" index="0" disallow="pedestrian" speed="3.65" length="2.34" shape="0.00,1188.00 -0.80,1187.60 -1.60,1186.40"/>
    </edge>
    <edge id=":A2_c0" function="crossing" crossingEdges="A2A3 A3A2">
        <lane id=":A2_c0_0" index="0" allow="pedestrian" speed="1.00" length="19.20" width="4.00" shape="9.60,1211.60 -9.60,1211.60"/>
    </edge>
    <edge id=":A2_c1" function="crossing" crossingEdges="A2B2 B2A2">
        <lane id=":A2_c1_0" index="0" allow="pedestrian" speed="1.00" length="19.20" width="4.00" shape="11.60,1190.40 11.60,1209.60"/>
    </edge>
    <edge id=":A2_c2" function="crossing" crossingEdges="A2A1 A1A2">
        <lane id=":A2_c2_0" index="0" allow="pedestrian" speed="1.00" length="19.20" width="4.00" shape="-9.60,1188.40 9.60,1188.40"/>
    </edge>
    <edge id=":A2_w0" function="walkingarea">
        <lane id=":A2_w0_0" index="0" allow="pedestrian" speed="1.00" length="17.55" width="4.00" shape="-9.60,1190.40 -9.60,1186.40 -11.60,1186.40 -11.60,1213.60 -9.60,1213.60 -9.60,1209.60"/>
    </edge>
    <edge id=":A2_w1" function="walkingarea">
        <lane id=":A2_w1_0" index="0" allow="pedestrian" speed="1.00" length="3.30" width="4.00" shape="9.60,1213.60 11.60,1213.60 13.60,1211.60 13.60,1209.60 12.38,1209.71 11.38,1210.04 10.60,1210.60 10.04,1211.38 9.71,1212.38"/>
    </edge>
    <edge id=":A2_w2" function="walkingarea">
        <lane id=":A2_w2_0" index="0" allow="pedestrian" speed="1.00" length="3.30" width="4.00" shape="13.60,1190.40 13.60,1188.40 11.60,1186.40 9.60,1186.40 9.71,1187.62 10.04,1188.62 10.60,1189.40 11.38,1189.96 12.38,1190.29"/>
    </edge>
    <edge id=":A3_0" function="internal">
        <lane id=":A3_0_0" index="0" disallow="pedestrian" speed="11.71" length="31.61" shape="11.60,1808.00 3.02,1806.78 -3.10,1803.10 -6.78,1796.97 -8.00,1788.40"/>
    </edge>
    <edge id=":A3_1" function="internal">
        <lane id=":A3_1_0" index="0" disallow="pedestrian" speed="10.75" length="26.45" shape="11.60,1804.80 4.42,1803.78 -0.70,1800.70 -3.77,1795.57 -4.80,1788.40"/>
    </edge>
    <edge id=":A3_2" function="internal">
        <lane id=":A3_2_0" index="0" disallow="pedestrian" speed="9.69" length="21.29" shape="11.60,1801.60 5.82,1800.78 1.70,1798.30 -0.78,1794.17 -1.60,1788.40"/>
    </edge>
    <edge id=":A3_3" function="internal">
        <lane id=":A3_3_0" index="0" disallow="pedestrian" speed="5.37" length="5.81" shape="8.00,1788.40 8.22,1789.97 8.90,1791.10 10.02,1791.78 11.60,1792.00"/>
    </edge>
    <edge id=":A3_4" function="internal">
        <lane id=":A3_4_0" index="0" disallow="pedestrian" speed="7.10" length="6.77" shape="4.80,1788.40 5.22,1791.38 6.50,1793.50 7.60,1794.16"/>
    </edge>
    <edge id=":A3_5" function="internal">
        <lane id=":A3_5_0" index="0" disallow="pedestrian" speed="8.49" length="12.09" shape="1.60,1788.40 2.22,1792.78 4.10,1795.90 7.22,1797.78 7.60,1797.83"/>
    </edge>
    <edge id=":A3_6" function="internal">
        <lane id=":A3_6_0" index="0" disallow="pedestrian" speed="7.10" length="4.20" shape="7.60,1794.16 8.62,1794.78 11.60,1795.20"/>
    </edge>
    <edge id=":A3_7" function="internal">
        <lane id=":A3_7_0" index="0" disallow="pedestrian" speed="8.49" length="4.04" shape="7.60,1797.83 11.60,1798.40"/>
    </edge>
    <edge id=":A3_c0" function="crossing" crossingEdges="A3B3 B3A3">
        <lane id=":A3_c0_0" index="0" allow="pedestrian" speed="1.00" length="19.20" width="4.00" shape="9.60,1790.40 9.60,1809.60"/>
    </edge>
    <edge id=":A3_w0" function="walkingarea">
        <lane id=":A3_w0_0" index="0" allow="pedestrian" speed="1.00" length="20.97" width="4.00" shape="-9.60,1788.40 -11.60,1788.40 11.60,1811.60 11.60,1809.60 5.12,1809.01 -0.18,1807.24 -4.30,1804.30 -7.24,1800.18 -9.01,1794.88"/>
    </edge>
    <edge id=":A3_w1" function="walkingarea">
        <lane id=":A3_w1_0" index="0" allow="pedestrian" speed="1.00" length="1.96" width="4.00" shape="11.60,1790.40 11.60,1788.40 11.60,1788.40 9.60,1788.40 9.66,1789.01 9.82,1789.51 10.10,1789.90 10.49,1790.18 10.99,1790.34"/>
    </edge>
    <edge id=":B0_0" function="internal">
        <lane id=":B0_0_0" index="0" disallow="pedestrian" speed="6.51" length="4.75" shape="592.00,13.60 591.65,11.15 590.60,9.40 590.40,9.28"/>
    </edge>
    <edge id=":B0_1" function="internal">
        <lane id=":B0_1_0" index="0" disallow="pedestrian" speed="8.00" length="10.13" shape="595.20,13.60 594.65,9.75 593.00,7.00 590.40,5.44"/>
    </edge>
    <edge id=":B0_2" function="internal">
        <lane id=":B0_2_0" index="0" disallow="pedestrian" speed="10.88" length="23.08" shape="598.40,13.60 599.35,5.55 602.20,-0.20 606.95,-3.65 609.60,-4.11"/>
    </edge>
    <edge id=":B0_3" function="internal">
        <lane id=":B0_3_0" index="0" disallow="pedestrian" speed="10.36" length="20.47" shape="598.40,13.60 599.35,6.95 602.20,2.20 606.95,-0.65 609.60,-1.03"/>
    </edge>
    <edge id=":B0_4" function="internal">
        <lane id=":B0_4_0" index="0" disallow="pedestrian" speed="3.65" length="4.67" shape="598.40,13.60 599.20,12.40 600.00,12.00 600.80,12.40 601.60,13.60"/>
    </edge>
    <edge id=":B0_16" function="internal">
        <lane id=":B0_16_0" index="0" disallow="pedestrian" speed="6.51" length="4.28" shape="590.40,9.28 588.85,8.35 586.40,8.00"/>
    </edge>
    <edge id=":B0_17" function="internal">
        <lane id=":B0_17_0" index="0" disallow="pedestrian" speed="8.00" length="4.06" shape="590.40,5.44 590.25,5.35 586.40,4.80"/>
    </edge>
    <edge id=":B0_18" function="internal">
        <lane id=":B0_18_0" index="0" disallow="pedestrian" speed="10.88" length="4.06" shape="609.60,-4.11 613.60,-4.80"/>
    </edge>
    <edge id=":B0_19" function="internal">
        <lane id=":B0_19_0" index="0" disallow="pedestrian" speed="10.36" length="4.04" shape="609.60,-1.03 613.60,-1.60"/>
    </edge>
    <edge id=":B0_5" function="internal">
        <lane id=":B0_5_0" index="0" disallow="pedestrian" speed="6.51" length="4.75" shape="613.60,8.00 611.15,8.35 609.40,9.40 609.28,9.60"/>
    </edge>
    <edge id=":B0_6" function="internal">
        <lane id=":B0_6_0" index="0" disallow="pedestrian" speed="13.89" length="27.20" shape="613.60,8.00 586.40,8.00"/>
        <lane id=":B0_6_1" index="1" disallow="pedestrian" speed="13.89" length="27.20" shape="613.60,4.80 586.40,4.80"/>
        <lane id=":B0_6_2" index="2" disallow="pedestrian" speed="13.89" length="27.20" shape="613.60,1.60 586.40,1.60"/>
    </edge>
    <edge id=":B0_9" function="internal">
        <lane id=":B0_9_0" index="0" disallow="pedestrian" speed="3.65" length="2.34" shape="613.60,1.60 612.40,0.80 612.00,0.00"/>
    </edge>
    <edge id=":B0_20" function="internal">
        <lane id=":B0_20_0" index="0" disallow="pedestrian" speed="6.51" length="4.28" shape="609.28,9.60 608.35,11.15 608.00,13.60"/>
    </edge>
    <edge id=":B0_21" function="internal">
        <lane id=":B0_21_0" index="0" disallow="pedestrian" speed="3.65" length="2.34" shape="612.00,0.00 612.40,-0.80 613.60,-1.60"/>
    </edge>
    <edge id=":B0_10" function="internal">
        <lane id=":B0_10_0" index="0" disallow="pedestrian" speed="13.89" length="27.20" shape="586.40,-8.00 613.60,-8.00"/>
        <lane id=":B0_10_1" index="1" disallow="pedestrian" speed="13.89" length="27.20" shape="586.40,-4.80 613.60,-4.80"/>
        <lane id=":B0_10_2" index="2" disallow="pedestrian" speed="13.89" length="27.20" shape="586.40,-1.60 613.60,-1.60"/>
    </edge>
    <edge id=":B0_13" function="internal">
        <lane id=":B0_13_0" index="0" disallow="pedestrian" speed="10.88" length="9.57" shape="586.40,-1.60 594.45,-0.65 595.76,-0.00"/>
    </edge>
    <edge id=":B0_14" function="internal">
        <lane id=":B0_14_0" index="0" disallow="pedestrian" speed="10.36" length="7.98" shape="586.40,-1.60 593.05,-0.65 594.13,-0.00"/>
    </edge>
    <edge id=":B0_15" function="internal">
        <lane id=":B0_15_0" index="0" disallow="pedestrian" speed="3.65" length="2.34" shape="586.40,-1.60 587.60,-0.80 588.00,0.00"/>
    </edge>
    <edge id=":B0_22" function="internal">
        <lane id=":B0_22_0" index="0" disallow="pedestrian" speed="10.88" length="17.57" shape="595.76,-0.00 600.20,2.20 603.65,6.95 604.80,13.60"/>
    </edge>
    <edge id=":B0_23" function="internal">
        <lane id=":B0_23_0" index="0" disallow="pedestrian" speed="10.36" length="16.53" shape="594.13,-0.00 597.80,2.20 600.65,6.95 601.60,13.60"/>
    </edge>
    <edge id=":B0_24" function="internal">
        <lane id=":B0_24_0" index="0" disallow="pedestrian" speed="3.65" length="2.34" shape="588.00,0.00 587.60,0.80 586.40,1.60"/>
    </edge>
    <edge id=":B0_c0" function="crossing" crossingEdges="B0B1 B1B0">
        <lane id=":B0_c0_0" index="0" allow="pedestrian" speed="1.00" length="19.20" width="4.00" shape="609.60,11.60 590.40,11.60"/>
    </edge>
    <edge id=":B0_c1" function="crossing" crossingEdges="B0C0 C0B0">
        <lane id=":B0_c1_0" index="0" allow="pedestrian" speed="1.00" length="19.20" width="4.00" shape="611.60,-9.60 611.60,9.60"/>
    </edge>
    <edge id=":B0_c2" function="crossing" crossingEdges="B0A0 A0B0">
        <lane id=":B0_c2_0" index="0" allow="pedestrian" speed="1.00" length="19.20" width="4.00" shape="588.40,9.60 588.40,-9.60"/>
    </edge>
    <edge id=":B0_w0" function="walkingarea">
        <lane id=":B0_w0_0" index="0" allow="pedestrian" speed="1.00" length="3.30" width="4.00" shape="586.40,9.60 586.40,11.60 588.40,13.60 590.40,13.60 590.29,12.38 589.96,11.38 589.40,10.60 588.62,10.04 587.62,9.71"/>
    </edge>
    <edge id=":B0_w1" function="walkingarea">
        <lane id=":B0_w1_0" index="0" allow="pedestrian" speed="1.00" length="3.30" width="4.00" shape="609.60,13.60 611.60,13.60 613.60,11.60 613.60,9.60 612.38,9.71 611.38,10.04 610.60,10.60 610.04,11.38 609.71,12.38"/>
    </edge>
    <edge id=":B0_w2" function="walkingarea">
        <lane id=":B0_w2_0" index="0" allow="pedestrian" speed="1.00" length="17.55" width="4.00" shape="609.60,-9.60 613.60,-9.60 613.60,-11.60 586.40,-11.60 586.40,-9.60 590.40,-9.60"/>
    </edge>
    <edge id=":B1_0" function="internal">
        <lane id=":B1_0_0" index="0" disallow="pedestrian" speed="6.51" length="4.75" shape="592.00,613.60 591.65,611.15 590.60,609.40 590.40,609.28"/>
    </edge>
    <edge id=":B1_1" function="internal">
        <lane id=":B1_1_0" index="0" disallow="pedestrian" speed="13.89" length="27.20" shape="592.00,613.60 592.00,586.40"/>
        <lane id=":B1_1_1" index="1" disallow="pedestrian" speed="13.89" length="27.20" shape="595.20,613.60 595.20,586.40"/>
        <lane id=":B1_1_2" index="2" disallow="pedestrian" speed="13.89" length="27.20" shape="598.40,613.60 598.40,586.40"/>
    </edge>
    <edge id=":B1_4" function="internal">
        <lane id=":B1_4_0" index="0" disallow="pedestrian" speed="10.36" length="20.47" shape="598.40,613.60 599.35,606.95 602.20,602.20 606.95,599.35 609.60,598.97"/>
    </edge>
    <edge id=":B1_5" function="internal">
        <lane id=":B1_5_0" index="0" disallow="pedestrian" speed="3.65" length="4.67" shape="598.40,613.60 599.20,612.40 600.00,612.00 600.80,612.40 601.60,613.60"/>
    </edge>
    <edge id=":B1_24" function="internal">
        <lane id=":B1_24_0" index="0" disallow="pedestrian" speed="6.51" length="4.28" shape="590.40,609.28 588.85,608.35 586.40,608.00"/>
    </edge>
    <edge id=":B1_25" function="internal">
        <lane id=":B1_25_0" index="0" disallow="pedestrian" speed="10.36" length="4.04" shape="609.60,598.97 613.60,598.40"/>
    </edge>
    <edge id=":B1_6" function="internal">
        <lane id=":B1_6_0" index="0" disallow="pedestrian" speed="6.51" length="4.75" shape="613.60,608.00 611.15,608.35 609.40,609.40 609.28,609.60"/>
    </edge>
    <edge id=":B1_7" function="internal">
        <lane id=":B1_7_0" index="0" disallow="pedestrian" speed="13.89" length="27.20" shape="613.60,608.00 586.40,608.00"/>
        <lane id=":B1_7_1" index="1" disallow="pedestrian" speed="13.89" length="27.20" shape="613.60,604.80 586.40,604.80"/>
        <lane id=":B1_7_2" index="2" disallow="pedestrian" speed="13.89" length="27.20" shape="613.60,601.60 586.40,601.60"/>
    </edge>
    <edge id=":B1_10" function="internal">
        <lane id=":B1_10_0" index="0" disallow="pedestrian" speed="10.36" length="20.47" shape="613.60,601.60 606.95,600.65 602.20,597.80 599.35,593.05 598.97,590.40"/>
    </edge>
    <edge id=":B1_11" function="internal">
        <lane id=":B1_11_0" index="0" disallow="pedestrian" speed="3.65" length="4.67" shape="613.60,601.60 612.40,600.80 612.00,600.00 612.40,599.20 613.60,598.40"/>
    </edge>
    <edge id=":B1_26" function="internal">
        <lane id=":B1_26_0" index="0" disallow="pedestrian" speed="6.51" length="4.28" shape="609.28,609.60 608.35,611.15 608.00,613.60"/>
    </edge>
    <edge id=":B1_27" function="internal">
        <lane id=":B1_27_0" index="0" disallow="pedestrian" speed="10.36" length="4.04" shape="598.97,590.40 598.40,586.40"/>
    </edge>
    <edge id=":B1_12" function="internal">
        <lane id=":B1_12_0" index="0" disallow="pedestrian" speed="6.51" length="4.75" shape="608.00,586.40 608.35,588.85 609.40,590.60 609.60,590.72"/>
    </edge>
    <edge id=":B1_13" function="internal">
        <lane id=":B1_13_0" index="0" disallow="pedestrian" speed="13.89" length="27.20" shape="608.00,586.40 608.00,613.60"/>
        <lane id=":B1_13_1" index="1" disallow="pedestrian" speed="13.89" length="27.20" shape="604.80,586.40 604.80,613.60"/>
        <lane id=":B1_13_2" index="2" disallow="pedestrian" speed="13.89" length="27.20" shape="601.60,586.40 601.60,613.60"/>
    </edge>
    <edge id=":B1_16" function="internal">
        <lane id=":B1_16_0" index="0" disallow="pedestrian" speed="10.36" length="20.47" shape="601.60,586.40 600.65,593.05 597.80,597.80 593.05,600.65 590.40,601.03"/>
    </edge>
    <edge id=":B1_17" function="internal">
        <lane id=":B1_17_0" index="0" disallow="pedestrian" speed="3.65" length="4.67" shape="601.60,586.40 600.80,587.60 600.00,588.00 599.20,587.60 598.40,586.40"/>
    </edge>
    <edge id=":B1_28" function="internal">
        <lane id=":B1_28_0" index="0" disallow="pedestrian" speed="6.51" length="4.28" shape="609.60,590.72 611.15,591.65 613.60,592.00"/>
    </edge>
    <edge id=":B1_29" function="internal">
        <lane id=":B1_29_0" index="0" disallow="pedestrian" speed="10.36" length="4.04" shape="590.40,601.03 586.40,601.60"/>
    </edge>
    <edge id=":B1_18" function="internal">
        <lane id=":B1_18_0" index="0" disallow="pedestrian" speed="6.51" length="4.75" shape="586.40,592.00 588.85,591.65 590.60,590.60 590.72,590.40"/>
    </edge>
    <edge id=":B1_19" function="internal">
        <lane id=":B1_19_0" index="0" disallow="pedestrian" speed="13.89" length="27.20" shape="586.40,592.00 613.60,592.00"/>
        <lane id=":B1_19_1" index="1" disallow="pedestrian" speed="13.89" length="27.20" shape="586.40,595.20 613.60,595.20"/>
        <lane id=":B1_19_2" index="2" disallow="pedestrian" speed="13.89" length="27.20" shape="586.40,598.40 613.60,598.40"/>
    </edge>
    <edge id=":B1_22" function="internal">
        <lane id=":B1_22_0" index="0" disallow="pedestrian" speed="10.36" length="20.47" shape="586.40,598.40 593.05,599.35 597.80,602.20 600.65,606.95 601.03,609.60"/>
    </edge>
    <edge id=":B1_23" function="internal">
        <lane id=":B1_23_0" index="0" disallow="pedestrian" speed="3.65" length="4.67" shape="586.40,598.40 587.60,599.20 588.00,600.00 587.60,600.80 586.40,601.60"/>
    </edge>
    <edge id=":B1_30" function="internal">